/*---------------------------------------------------------------------------*\
  =========                 |
  \\      /  F ield         | OpenFOAM: The Open Source CFD Toolbox
   \\    /   O peration     | Website:  https://openfoam.org
    \\  /    A nd           | Version:  13
     \\/     M anipulation  |
\*---------------------------------------------------------------------------*/
Build  : 13-cde978a97c93
Exec   : foamRun
Date   : Feb 26 2026
Time   : 15:40:23
Host   : "JOO-DESKTOP"
PID    : 39403
I/O    : uncollated
Case   : /home/joo/OpenFOAM/joo-13/run/trackB_propellerIGE_v13/cases/baseCase
nProcs : 1
sigFpe : Enabling floating point exception trapping (FOAM_SIGFPE).
fileModificationChecking : Monitoring run-time modified files using timeStampMaster (fileModificationSkew 10)
allowSystemOperations : Allowing user-supplied system call operations

// * * * * * * * * * * * * * * * * * * * * * * * * * * * * * * * * * * * * * //
Create time

Create mesh for time = 0

Selecting solver incompressibleFluid
Selecting viscosity model constant
Selecting turbulence model type RAS
    Selecting RAS turbulence model kOmegaSST
No MRF models present

Selecting patchDistMethod meshWave
Creating fvModels from "constant/fvModels"

Selecting finite volume model type propellerDisk
    Name: diskSource

SIMPLE: Convergence criteria found
        p: tolerance 0.0001
        U: tolerance 1e-05
        k: tolerance 1e-05
        omega: tolerance 1e-05


SIMPLE: Operating solver in steady-state mode with 1 outer corrector
SIMPLE: Operating solver in SIMPLE mode



Starting time loop

Reading set description:
    line

volFieldValue Uavg_propeller read:
    number of cells = 160
    volume = 0.01
    operation = volAverage

surfaceFieldValue phi_farField read:
    number of faces = 7680
    area = 9.6
    operation = orientedSum

surfaceFieldValue phi_top read:
    number of faces = 1600
    area = 4
    operation = orientedSum

volFieldValue Uavg_propeller write:
    volAverage(propeller) of U = (0 0 -0.01)

surfaceFieldValue phi_farField write:
    orientedSum(farField) of phi = 0

surfaceFieldValue phi_top write:
    orientedSum(top) of phi = 0

Time = 1s

--> FOAM Warning : 
    From function void Foam::Function1s::Table<Type>::checkX(Foam::scalar) const [with Type = Foam::Vector2D<double>; Foam::scalar = double]
    in file lnInclude/Table.C at line 107
    "value (0.000769231) underflow"

--> FOAM Warning : 
    From function void Foam::Function1s::Table<Type>::checkX(Foam::scalar) const [with Type = Foam::Vector2D<double>; Foam::scalar = double]
    in file lnInclude/Table.C at line 107
    "value (-422.466) underflow"

smoothSolver:  Solving for Ux, Initial residual = 1, Final residual = 0.0352313, No Iterations 1
smoothSolver:  Solving for Uy, Initial residual = 1, Final residual = 0.0352313, No Iterations 1
smoothSolver:  Solving for Uz, Initial residual = 1, Final residual = 0.0357033, No Iterations 1
DICPCG:  Solving for p, Initial residual = 1, Final residual = 0.041477, No Iterations 21
time step continuity errors : sum local = 6.45525, global = 1.01156, cumulative = 1.01156
smoothSolver:  Solving for omega, Initial residual = 0.008895, Final residual = 0.000378665, No Iterations 1
smoothSolver:  Solving for k, Initial residual = 1, Final residual = 0.0418764, No Iterations 1
ExecutionTime = 0.723924 s  ClockTime = 1 s

volFieldValue Uavg_propeller write:
    volAverage(propeller) of U = (-0.0318664 -0.0266147 -1646.08)

surfaceFieldValue phi_farField write:
    orientedSum(farField) of phi = 33.9613

surfaceFieldValue phi_top write:
    orientedSum(top) of phi = -29.1058

Time = 2s

--> FOAM Warning : 
    From function void Foam::Function1s::Table<Type>::checkX(Foam::scalar) const [with Type = Foam::Vector2D<double>; Foam::scalar = double]
    in file lnInclude/Table.C at line 107
    "value (126.621) overflow"

--> FOAM Warning : 
    From function void Foam::Function1s::Table<Type>::checkX(Foam::scalar) const [with Type = Foam::Vector2D<double>; Foam::scalar = double]
    in file lnInclude/Table.C at line 107
    "value (126.621) overflow"

smoothSolver:  Solving for Ux, Initial residual = 0.244445, Final residual = 0.0123151, No Iterations 1
smoothSolver:  Solving for Uy, Initial residual = 0.244452, Final residual = 0.011985, No Iterations 1
smoothSolver:  Solving for Uz, Initial residual = 0.252464, Final residual = 0.0127125, No Iterations 1
DICPCG:  Solving for p, Initial residual = 0.988663, Final residual = 0.03891, No Iterations 23
time step continuity errors : sum local = 5.04171, global = 1.17206, cumulative = 2.18362
smoothSolver:  Solving for omega, Initial residual = 0.00714194, Final residual = 0.000353301, No Iterations 1
smoothSolver:  Solving for k, Initial residual = 0.251622, Final residual = 0.0125851, No Iterations 1
ExecutionTime = 0.825253 s  ClockTime = 1 s

volFieldValue Uavg_propeller write:
    volAverage(propeller) of U = (0.678614 0.131576 -1155.65)

surfaceFieldValue phi_farField write:
    orientedSum(farField) of phi = 94.5741

surfaceFieldValue phi_top write:
    orientedSum(top) of phi = -88.9482

Time = 3s

--> FOAM Warning : 
    From function void Foam::Function1s::Table<Type>::checkX(Foam::scalar) const [with Type = Foam::Vector2D<double>; Foam::scalar = double]
    in file lnInclude/Table.C at line 107
    "value (88.8965) overflow"

--> FOAM Warning : 
    From function void Foam::Function1s::Table<Type>::checkX(Foam::scalar) const [with Type = Foam::Vector2D<double>; Foam::scalar = double]
    in file lnInclude/Table.C at line 107
    "value (88.8961) overflow"

smoothSolver:  Solving for Ux, Initial residual = 0.223983, Final residual = 0.0101316, No Iterations 1
smoothSolver:  Solving for Uy, Initial residual = 0.223888, Final residual = 0.00974663, No Iterations 1
smoothSolver:  Solving for Uz, Initial residual = 0.236285, Final residual = 0.00970599, No Iterations 1
DICPCG:  Solving for p, Initial residual = 0.152269, Final residual = 0.00627319, No Iterations 21
time step continuity errors : sum local = 3.60493, global = 0.756771, cumulative = 2.9404
smoothSolver:  Solving for omega, Initial residual = 0.00863098, Final residual = 0.000387821, No Iterations 1
smoothSolver:  Solving for k, Initial residual = 0.192786, Final residual = 0.00919345, No Iterations 1
ExecutionTime = 0.925652 s  ClockTime = 1 s

volFieldValue Uavg_propeller write:
    volAverage(propeller) of U = (0.913574 -0.207893 -696.471)

surfaceFieldValue phi_farField write:
    orientedSum(farField) of phi = 82.7302

surfaceFieldValue phi_top write:
    orientedSum(top) of phi = -79.0977

Time = 4s

--> FOAM Warning : 
    From function void Foam::Function1s::Table<Type>::checkX(Foam::scalar) const [with Type = Foam::Vector2D<double>; Foam::scalar = double]
    in file lnInclude/Table.C at line 107
    "value (53.5747) overflow"

--> FOAM Warning : 
    From function void Foam::Function1s::Table<Type>::checkX(Foam::scalar) const [with Type = Foam::Vector2D<double>; Foam::scalar = double]
    in file lnInclude/Table.C at line 107
    "value (53.5741) overflow"

smoothSolver:  Solving for Ux, Initial residual = 0.202446, Final residual = 0.0102303, No Iterations 1
smoothSolver:  Solving for Uy, Initial residual = 0.202255, Final residual = 0.00992634, No Iterations 1
smoothSolver:  Solving for Uz, Initial residual = 0.221168, Final residual = 0.00959772, No Iterations 1
DICPCG:  Solving for p, Initial residual = 0.054107, Final residual = 0.00239534, No Iterations 18
time step continuity errors : sum local = 2.97116, global = -1.22895, cumulative = 1.71144
smoothSolver:  Solving for omega, Initial residual = 0.0122906, Final residual = 0.000538817, No Iterations 1
smoothSolver:  Solving for k, Initial residual = 0.173757, Final residual = 0.00872168, No Iterations 1
ExecutionTime = 1.02322 s  ClockTime = 2 s

volFieldValue Uavg_propeller write:
    volAverage(propeller) of U = (1.05125 -0.805346 -410.082)

surfaceFieldValue phi_farField write:
    orientedSum(farField) of phi = 87.6665

surfaceFieldValue phi_top write:
    orientedSum(top) of phi = -93.5655

Time = 5s

--> FOAM Warning : 
    From function void Foam::Function1s::Table<Type>::checkX(Foam::scalar) const [with Type = Foam::Vector2D<double>; Foam::scalar = double]
    in file lnInclude/Table.C at line 107
    "value (31.5447) overflow"

--> FOAM Warning : 
    From function void Foam::Function1s::Table<Type>::checkX(Foam::scalar) const [with Type = Foam::Vector2D<double>; Foam::scalar = double]
    in file lnInclude/Table.C at line 107
    "value (31.5436) overflow"

smoothSolver:  Solving for Ux, Initial residual = 0.152974, Final residual = 0.00782986, No Iterations 1
smoothSolver:  Solving for Uy, Initial residual = 0.152874, Final residual = 0.00760288, No Iterations 1
smoothSolver:  Solving for Uz, Initial residual = 0.185591, Final residual = 0.00807502, No Iterations 1
DICPCG:  Solving for p, Initial residual = 0.144927, Final residual = 0.0062821, No Iterations 15
time step continuity errors : sum local = 4.19111, global = 1.93194, cumulative = 3.64338
smoothSolver:  Solving for omega, Initial residual = 0.0137173, Final residual = 0.000587781, No Iterations 1
smoothSolver:  Solving for k, Initial residual = 0.122443, Final residual = 0.00601244, No Iterations 1
ExecutionTime = 1.11952 s  ClockTime = 2 s

volFieldValue Uavg_propeller write:
    volAverage(propeller) of U = (1.58011 -1.44652 -316.355)

surfaceFieldValue phi_farField write:
    orientedSum(farField) of phi = 113.62

surfaceFieldValue phi_top write:
    orientedSum(top) of phi = -104.347

Time = 6s

--> FOAM Warning : 
    From function void Foam::Function1s::Table<Type>::checkX(Foam::scalar) const [with Type = Foam::Vector2D<double>; Foam::scalar = double]
    in file lnInclude/Table.C at line 107
    "value (24.335) overflow"

--> FOAM Warning : 
    From function void Foam::Function1s::Table<Type>::checkX(Foam::scalar) const [with Type = Foam::Vector2D<double>; Foam::scalar = double]
    in file lnInclude/Table.C at line 107
    "value (24.3336) overflow"

smoothSolver:  Solving for Ux, Initial residual = 0.107743, Final residual = 0.00550677, No Iterations 1
smoothSolver:  Solving for Uy, Initial residual = 0.107754, Final residual = 0.00536871, No Iterations 1
smoothSolver:  Solving for Uz, Initial residual = 0.127198, Final residual = 0.0057657, No Iterations 1
DICPCG:  Solving for p, Initial residual = 0.212158, Final residual = 0.00943174, No Iterations 20
time step continuity errors : sum local = 5.00282, global = -0.717938, cumulative = 2.92544
smoothSolver:  Solving for omega, Initial residual = 0.0158604, Final residual = 0.000656673, No Iterations 1
smoothSolver:  Solving for k, Initial residual = 0.174446, Final residual = 0.00879812, No Iterations 1
ExecutionTime = 1.2275 s  ClockTime = 2 s

volFieldValue Uavg_propeller write:
    volAverage(propeller) of U = (2.16118 -1.63144 -339.063)

surfaceFieldValue phi_farField write:
    orientedSum(farField) of phi = 113.286

surfaceFieldValue phi_top write:
    orientedSum(top) of phi = -116.732

Time = 7s

--> FOAM Warning : 
    From function void Foam::Function1s::Table<Type>::checkX(Foam::scalar) const [with Type = Foam::Vector2D<double>; Foam::scalar = double]
    in file lnInclude/Table.C at line 107
    "value (26.0818) overflow"

--> FOAM Warning : 
    From function void Foam::Function1s::Table<Type>::checkX(Foam::scalar) const [with Type = Foam::Vector2D<double>; Foam::scalar = double]
    in file lnInclude/Table.C at line 107
    "value (26.0804) overflow"

smoothSolver:  Solving for Ux, Initial residual = 0.0824325, Final residual = 0.00414226, No Iterations 1
smoothSolver:  Solving for Uy, Initial residual = 0.0825316, Final residual = 0.00413409, No Iterations 1
smoothSolver:  Solving for Uz, Initial residual = 0.0720886, Final residual = 0.0033619, No Iterations 1
DICPCG:  Solving for p, Initial residual = 0.0698303, Final residual = 0.00339325, No Iterations 20
time step continuity errors : sum local = 5.04757, global = -1.20264, cumulative = 1.7228
smoothSolver:  Solving for omega, Initial residual = 0.0156966, Final residual = 0.000620009, No Iterations 1
smoothSolver:  Solving for k, Initial residual = 0.135386, Final residual = 0.00689582, No Iterations 1
ExecutionTime = 1.32974 s  ClockTime = 2 s

volFieldValue Uavg_propeller write:
    volAverage(propeller) of U = (2.54998 -1.21704 -374.747)

surfaceFieldValue phi_farField write:
    orientedSum(farField) of phi = 121.618

surfaceFieldValue phi_top write:
    orientedSum(top) of phi = -127.39

Time = 8s

--> FOAM Warning : 
    From function void Foam::Function1s::Table<Type>::checkX(Foam::scalar) const [with Type = Foam::Vector2D<double>; Foam::scalar = double]
    in file lnInclude/Table.C at line 107
    "value (28.8267) overflow"

--> FOAM Warning : 
    From function void Foam::Function1s::Table<Type>::checkX(Foam::scalar) const [with Type = Foam::Vector2D<double>; Foam::scalar = double]
    in file lnInclude/Table.C at line 107
    "value (28.8255) overflow"

smoothSolver:  Solving for Ux, Initial residual = 0.0930991, Final residual = 0.00446935, No Iterations 1
smoothSolver:  Solving for Uy, Initial residual = 0.0933232, Final residual = 0.00460414, No Iterations 1
smoothSolver:  Solving for Uz, Initial residual = 0.053787, Final residual = 0.0022498, No Iterations 1
DICPCG:  Solving for p, Initial residual = 0.0417748, Final residual = 0.00187258, No Iterations 19
time step continuity errors : sum local = 3.65485, global = -0.798817, cumulative = 0.92398
smoothSolver:  Solving for omega, Initial residual = 0.0140885, Final residual = 0.000541954, No Iterations 1
smoothSolver:  Solving for k, Initial residual = 0.100267, Final residual = 0.004814, No Iterations 1
ExecutionTime = 1.42965 s  ClockTime = 2 s

volFieldValue Uavg_propeller write:
    volAverage(propeller) of U = (2.68988 -0.449458 -376.109)

surfaceFieldValue phi_farField write:
    orientedSum(farField) of phi = 130.548

surfaceFieldValue phi_top write:
    orientedSum(top) of phi = -134.382

Time = 9s

--> FOAM Warning : 
    From function void Foam::Function1s::Table<Type>::checkX(Foam::scalar) const [with Type = Foam::Vector2D<double>; Foam::scalar = double]
    in file lnInclude/Table.C at line 107
    "value (28.9314) overflow"

--> FOAM Warning : 
    From function void Foam::Function1s::Table<Type>::checkX(Foam::scalar) const [with Type = Foam::Vector2D<double>; Foam::scalar = double]
    in file lnInclude/Table.C at line 107
    "value (28.9302) overflow"

smoothSolver:  Solving for Ux, Initial residual = 0.111885, Final residual = 0.00528915, No Iterations 1
smoothSolver:  Solving for Uy, Initial residual = 0.112006, Final residual = 0.00550979, No Iterations 1
smoothSolver:  Solving for Uz, Initial residual = 0.0581429, Final residual = 0.00230128, No Iterations 1
DICPCG:  Solving for p, Initial residual = 0.0312417, Final residual = 0.00154942, No Iterations 13
time step continuity errors : sum local = 3.21407, global = 0.661222, cumulative = 1.5852
smoothSolver:  Solving for omega, Initial residual = 0.0123454, Final residual = 0.000473554, No Iterations 1
smoothSolver:  Solving for k, Initial residual = 0.0752925, Final residual = 0.00359709, No Iterations 1
ExecutionTime = 1.52452 s  ClockTime = 2 s

volFieldValue Uavg_propeller write:
    volAverage(propeller) of U = (2.5557 0.381424 -342.032)

surfaceFieldValue phi_farField write:
    orientedSum(farField) of phi = 139.497

surfaceFieldValue phi_top write:
    orientedSum(top) of phi = -136.323

Time = 10s

--> FOAM Warning : 
    From function void Foam::Function1s::Table<Type>::checkX(Foam::scalar) const [with Type = Foam::Vector2D<double>; Foam::scalar = double]
    in file lnInclude/Table.C at line 107
    "value (26.3102) overflow"

--> FOAM Warning : 
    From function void Foam::Function1s::Table<Type>::checkX(Foam::scalar) const [with Type = Foam::Vector2D<double>; Foam::scalar = double]
    in file lnInclude/Table.C at line 107
    "value (26.3088) overflow"

smoothSolver:  Solving for Ux, Initial residual = 0.117743, Final residual = 0.00553618, No Iterations 1
smoothSolver:  Solving for Uy, Initial residual = 0.11773, Final residual = 0.00577295, No Iterations 1
smoothSolver:  Solving for Uz, Initial residual = 0.0527488, Final residual = 0.00205039, No Iterations 1
DICPCG:  Solving for p, Initial residual = 0.0414836, Final residual = 0.00205975, No Iterations 14
time step continuity errors : sum local = 3.39362, global = -1.43406, cumulative = 0.151143
smoothSolver:  Solving for omega, Initial residual = 0.0111186, Final residual = 0.000425805, No Iterations 1
smoothSolver:  Solving for k, Initial residual = 0.0740669, Final residual = 0.00364918, No Iterations 1
ExecutionTime = 1.61859 s  ClockTime = 2 s

volFieldValue Uavg_propeller write:
    volAverage(propeller) of U = (2.25201 1.01612 -291.92)

surfaceFieldValue phi_farField write:
    orientedSum(farField) of phi = 133.615

surfaceFieldValue phi_top write:
    orientedSum(top) of phi = -140.499

Time = 11s

--> FOAM Warning : 
    From function void Foam::Function1s::Table<Type>::checkX(Foam::scalar) const [with Type = Foam::Vector2D<double>; Foam::scalar = double]
    in file lnInclude/Table.C at line 107
    "value (22.4554) overflow"

--> FOAM Warning : 
    From function void Foam::Function1s::Table<Type>::checkX(Foam::scalar) const [with Type = Foam::Vector2D<double>; Foam::scalar = double]
    in file lnInclude/Table.C at line 107
    "value (22.4538) overflow"

smoothSolver:  Solving for Ux, Initial residual = 0.106008, Final residual = 0.00496383, No Iterations 1
smoothSolver:  Solving for Uy, Initial residual = 0.105868, Final residual = 0.0051437, No Iterations 1
smoothSolver:  Solving for Uz, Initial residual = 0.0417747, Final residual = 0.00164208, No Iterations 1
DICPCG:  Solving for p, Initial residual = 0.0673099, Final residual = 0.00273655, No Iterations 20
time step continuity errors : sum local = 2.74008, global = 0.347876, cumulative = 0.499019
smoothSolver:  Solving for omega, Initial residual = 0.00998077, Final residual = 0.000383084, No Iterations 1
smoothSolver:  Solving for k, Initial residual = 0.0519428, Final residual = 0.00245942, No Iterations 1
ExecutionTime = 1.72072 s  ClockTime = 2 s

volFieldValue Uavg_propeller write:
    volAverage(propeller) of U = (1.83339 1.33308 -248.945)

surfaceFieldValue phi_farField write:
    orientedSum(farField) of phi = 142.678

surfaceFieldValue phi_top write:
    orientedSum(top) of phi = -141.009

Time = 12s

--> FOAM Warning : 
    From function void Foam::Function1s::Table<Type>::checkX(Foam::scalar) const [with Type = Foam::Vector2D<double>; Foam::scalar = double]
    in file lnInclude/Table.C at line 107
    "value (19.1496) overflow"

--> FOAM Warning : 
    From function void Foam::Function1s::Table<Type>::checkX(Foam::scalar) const [with Type = Foam::Vector2D<double>; Foam::scalar = double]
    in file lnInclude/Table.C at line 107
    "value (19.1478) overflow"

smoothSolver:  Solving for Ux, Initial residual = 0.0890955, Final residual = 0.00418973, No Iterations 1
smoothSolver:  Solving for Uy, Initial residual = 0.0888454, Final residual = 0.00425478, No Iterations 1
smoothSolver:  Solving for Uz, Initial residual = 0.0378601, Final residual = 0.00159064, No Iterations 1
DICPCG:  Solving for p, Initial residual = 0.148947, Final residual = 0.00650308, No Iterations 20
time step continuity errors : sum local = 2.5923, global = 0.170372, cumulative = 0.669391
smoothSolver:  Solving for omega, Initial residual = 0.00914093, Final residual = 0.000359863, No Iterations 1
smoothSolver:  Solving for k, Initial residual = 0.0431434, Final residual = 0.00212242, No Iterations 1
ExecutionTime = 1.82528 s  ClockTime = 2 s

volFieldValue Uavg_propeller write:
    volAverage(propeller) of U = (1.35715 1.31914 -228.417)

surfaceFieldValue phi_farField write:
    orientedSum(farField) of phi = 143.828

surfaceFieldValue phi_top write:
    orientedSum(top) of phi = -143.01

Time = 13s

--> FOAM Warning : 
    From function void Foam::Function1s::Table<Type>::checkX(Foam::scalar) const [with Type = Foam::Vector2D<double>; Foam::scalar = double]
    in file lnInclude/Table.C at line 107
    "value (17.5705) overflow"

--> FOAM Warning : 
    From function void Foam::Function1s::Table<Type>::checkX(Foam::scalar) const [with Type = Foam::Vector2D<double>; Foam::scalar = double]
    in file lnInclude/Table.C at line 107
    "value (17.5685) overflow"

smoothSolver:  Solving for Ux, Initial residual = 0.0770277, Final residual = 0.00367552, No Iterations 1
smoothSolver:  Solving for Uy, Initial residual = 0.0767626, Final residual = 0.00366298, No Iterations 1
smoothSolver:  Solving for Uz, Initial residual = 0.0467139, Final residual = 0.00196052, No Iterations 1
DICPCG:  Solving for p, Initial residual = 0.321565, Final residual = 0.0147184, No Iterations 17
time step continuity errors : sum local = 2.28651, global = -0.173458, cumulative = 0.495933
smoothSolver:  Solving for omega, Initial residual = 0.00844903, Final residual = 0.000338296, No Iterations 1
smoothSolver:  Solving for k, Initial residual = 0.0399822, Final residual = 0.00197351, No Iterations 1
ExecutionTime = 1.92643 s  ClockTime = 2 s

volFieldValue Uavg_propeller write:
    volAverage(propeller) of U = (0.941078 1.089 -233.236)

surfaceFieldValue phi_farField write:
    orientedSum(farField) of phi = 143.415

surfaceFieldValue phi_top write:
    orientedSum(top) of phi = -144.248

Time = 14s

--> FOAM Warning : 
    From function void Foam::Function1s::Table<Type>::checkX(Foam::scalar) const [with Type = Foam::Vector2D<double>; Foam::scalar = double]
    in file lnInclude/Table.C at line 107
    "value (17.9413) overflow"

--> FOAM Warning : 
    From function void Foam::Function1s::Table<Type>::checkX(Foam::scalar) const [with Type = Foam::Vector2D<double>; Foam::scalar = double]
    in file lnInclude/Table.C at line 107
    "value (17.9393) overflow"

smoothSolver:  Solving for Ux, Initial residual = 0.0697489, Final residual = 0.00334962, No Iterations 1
smoothSolver:  Solving for Uy, Initial residual = 0.0695046, Final residual = 0.00331155, No Iterations 1
smoothSolver:  Solving for Uz, Initial residual = 0.053955, Final residual = 0.00217183, No Iterations 1
DICPCG:  Solving for p, Initial residual = 0.173693, Final residual = 0.00700583, No Iterations 13
time step continuity errors : sum local = 1.90613, global = -0.0993975, cumulative = 0.396535
smoothSolver:  Solving for omega, Initial residual = 0.00763038, Final residual = 0.000316583, No Iterations 1
smoothSolver:  Solving for k, Initial residual = 0.0383364, Final residual = 0.00185949, No Iterations 1
ExecutionTime = 2.02771 s  ClockTime = 3 s

volFieldValue Uavg_propeller write:
    volAverage(propeller) of U = (0.694427 0.808228 -254.926)

surfaceFieldValue phi_farField write:
    orientedSum(farField) of phi = 146.739

surfaceFieldValue phi_top write:
    orientedSum(top) of phi = -147.216

Time = 15s

--> FOAM Warning : 
    From function void Foam::Function1s::Table<Type>::checkX(Foam::scalar) const [with Type = Foam::Vector2D<double>; Foam::scalar = double]
    in file lnInclude/Table.C at line 107
    "value (19.6097) overflow"

--> FOAM Warning : 
    From function void Foam::Function1s::Table<Type>::checkX(Foam::scalar) const [with Type = Foam::Vector2D<double>; Foam::scalar = double]
    in file lnInclude/Table.C at line 107
    "value (19.6079) overflow"

smoothSolver:  Solving for Ux, Initial residual = 0.0645839, Final residual = 0.00304841, No Iterations 1
smoothSolver:  Solving for Uy, Initial residual = 0.0643532, Final residual = 0.00303289, No Iterations 1
smoothSolver:  Solving for Uz, Initial residual = 0.0512124, Final residual = 0.00201292, No Iterations 1
DICPCG:  Solving for p, Initial residual = 0.490468, Final residual = 0.0238147, No Iterations 13
time step continuity errors : sum local = 2.36492, global = 1.01007, cumulative = 1.40661
smoothSolver:  Solving for omega, Initial residual = 0.00692345, Final residual = 0.000295568, No Iterations 1
smoothSolver:  Solving for k, Initial residual = 0.0383, Final residual = 0.0019058, No Iterations 1
ExecutionTime = 2.12722 s  ClockTime = 3 s

volFieldValue Uavg_propeller write:
    volAverage(propeller) of U = (0.635261 0.590706 -279.29)

surfaceFieldValue phi_farField write:
    orientedSum(farField) of phi = 153.303

surfaceFieldValue phi_top write:
    orientedSum(top) of phi = -148.454

Time = 16s

--> FOAM Warning : 
    From function void Foam::Function1s::Table<Type>::checkX(Foam::scalar) const [with Type = Foam::Vector2D<double>; Foam::scalar = double]
    in file lnInclude/Table.C at line 107
    "value (21.4838) overflow"

--> FOAM Warning : 
    From function void Foam::Function1s::Table<Type>::checkX(Foam::scalar) const [with Type = Foam::Vector2D<double>; Foam::scalar = double]
    in file lnInclude/Table.C at line 107
    "value (21.4822) overflow"

smoothSolver:  Solving for Ux, Initial residual = 0.0608106, Final residual = 0.00283896, No Iterations 1
smoothSolver:  Solving for Uy, Initial residual = 0.0605855, Final residual = 0.00284498, No Iterations 1
smoothSolver:  Solving for Uz, Initial residual = 0.0416817, Final residual = 0.00163194, No Iterations 1
DICPCG:  Solving for p, Initial residual = 0.146618, Final residual = 0.00685141, No Iterations 16
time step continuity errors : sum local = 2.22167, global = 0.0934002, cumulative = 1.50001
smoothSolver:  Solving for omega, Initial residual = 0.00609098, Final residual = 0.000265138, No Iterations 1
smoothSolver:  Solving for k, Initial residual = 0.0478276, Final residual = 0.00238671, No Iterations 1
ExecutionTime = 2.22736 s  ClockTime = 3 s

volFieldValue Uavg_propeller write:
    volAverage(propeller) of U = (0.677711 0.454328 -293.957)

surfaceFieldValue phi_farField write:
    orientedSum(farField) of phi = 152.233

surfaceFieldValue phi_top write:
    orientedSum(top) of phi = -151.785

Time = 17s

--> FOAM Warning : 
    From function void Foam::Function1s::Table<Type>::checkX(Foam::scalar) const [with Type = Foam::Vector2D<double>; Foam::scalar = double]
    in file lnInclude/Table.C at line 107
    "value (22.6121) overflow"

--> FOAM Warning : 
    From function void Foam::Function1s::Table<Type>::checkX(Foam::scalar) const [with Type = Foam::Vector2D<double>; Foam::scalar = double]
    in file lnInclude/Table.C at line 107
    "value (22.6105) overflow"

smoothSolver:  Solving for Ux, Initial residual = 0.0610673, Final residual = 0.00282719, No Iterations 1
smoothSolver:  Solving for Uy, Initial residual = 0.0609003, Final residual = 0.0028457, No Iterations 1
smoothSolver:  Solving for Uz, Initial residual = 0.0322185, Final residual = 0.00129164, No Iterations 1
DICPCG:  Solving for p, Initial residual = 0.0681163, Final residual = 0.00325184, No Iterations 17
time step continuity errors : sum local = 2.09243, global = -0.214286, cumulative = 1.28572
smoothSolver:  Solving for omega, Initial residual = 0.0054366, Final residual = 0.00023898, No Iterations 1
smoothSolver:  Solving for k, Initial residual = 0.0464825, Final residual = 0.00225303, No Iterations 1
ExecutionTime = 2.3289 s  ClockTime = 3 s

volFieldValue Uavg_propeller write:
    volAverage(propeller) of U = (0.704237 0.356166 -293.428)

surfaceFieldValue phi_farField write:
    orientedSum(farField) of phi = 152.382

surfaceFieldValue phi_top write:
    orientedSum(top) of phi = -153.411

Time = 18s

--> FOAM Warning : 
    From function void Foam::Function1s::Table<Type>::checkX(Foam::scalar) const [with Type = Foam::Vector2D<double>; Foam::scalar = double]
    in file lnInclude/Table.C at line 107
    "value (22.5714) overflow"

--> FOAM Warning : 
    From function void Foam::Function1s::Table<Type>::checkX(Foam::scalar) const [with Type = Foam::Vector2D<double>; Foam::scalar = double]
    in file lnInclude/Table.C at line 107
    "value (22.5698) overflow"

smoothSolver:  Solving for Ux, Initial residual = 0.064047, Final residual = 0.00294499, No Iterations 1
smoothSolver:  Solving for Uy, Initial residual = 0.0639119, Final residual = 0.00296775, No Iterations 1
smoothSolver:  Solving for Uz, Initial residual = 0.0270219, Final residual = 0.00111483, No Iterations 1
DICPCG:  Solving for p, Initial residual = 0.0474243, Final residual = 0.00211813, No Iterations 15
time step continuity errors : sum local = 1.81261, global = -0.0240231, cumulative = 1.2617
smoothSolver:  Solving for omega, Initial residual = 0.00489131, Final residual = 0.000216916, No Iterations 1
smoothSolver:  Solving for k, Initial residual = 0.0429919, Final residual = 0.00204762, No Iterations 1
ExecutionTime = 2.43193 s  ClockTime = 3 s

volFieldValue Uavg_propeller write:
    volAverage(propeller) of U = (0.662623 0.271219 -279.83)

surfaceFieldValue phi_farField write:
    orientedSum(farField) of phi = 152.423

surfaceFieldValue phi_top write:
    orientedSum(top) of phi = -152.538

Time = 19s

--> FOAM Warning : 
    From function void Foam::Function1s::Table<Type>::checkX(Foam::scalar) const [with Type = Foam::Vector2D<double>; Foam::scalar = double]
    in file lnInclude/Table.C at line 107
    "value (21.5254) overflow"

--> FOAM Warning : 
    From function void Foam::Function1s::Table<Type>::checkX(Foam::scalar) const [with Type = Foam::Vector2D<double>; Foam::scalar = double]
    in file lnInclude/Table.C at line 107
    "value (21.5238) overflow"

smoothSolver:  Solving for Ux, Initial residual = 0.0650236, Final residual = 0.00298352, No Iterations 1
smoothSolver:  Solving for Uy, Initial residual = 0.0648982, Final residual = 0.00301198, No Iterations 1
smoothSolver:  Solving for Uz, Initial residual = 0.0259639, Final residual = 0.00105527, No Iterations 1
DICPCG:  Solving for p, Initial residual = 0.0471127, Final residual = 0.00211436, No Iterations 11
time step continuity errors : sum local = 1.86036, global = -0.129231, cumulative = 1.13247
smoothSolver:  Solving for omega, Initial residual = 0.00437536, Final residual = 0.000194732, No Iterations 1
smoothSolver:  Solving for k, Initial residual = 0.0396952, Final residual = 0.00196968, No Iterations 1
ExecutionTime = 2.53976 s  ClockTime = 3 s

volFieldValue Uavg_propeller write:
    volAverage(propeller) of U = (0.553562 0.193539 -259.964)

surfaceFieldValue phi_farField write:
    orientedSum(farField) of phi = 152.78

surfaceFieldValue phi_top write:
    orientedSum(top) of phi = -153.401

Time = 20s

--> FOAM Warning : 
    From function void Foam::Function1s::Table<Type>::checkX(Foam::scalar) const [with Type = Foam::Vector2D<double>; Foam::scalar = double]
    in file lnInclude/Table.C at line 107
    "value (19.9972) overflow"

--> FOAM Warning : 
    From function void Foam::Function1s::Table<Type>::checkX(Foam::scalar) const [with Type = Foam::Vector2D<double>; Foam::scalar = double]
    in file lnInclude/Table.C at line 107
    "value (19.9954) overflow"

smoothSolver:  Solving for Ux, Initial residual = 0.0628941, Final residual = 0.00287849, No Iterations 1
smoothSolver:  Solving for Uy, Initial residual = 0.0627447, Final residual = 0.00290868, No Iterations 1
smoothSolver:  Solving for Uz, Initial residual = 0.0258283, Final residual = 0.00102828, No Iterations 1
DICPCG:  Solving for p, Initial residual = 0.0531967, Final residual = 0.0025629, No Iterations 12
time step continuity errors : sum local = 2.00986, global = -0.898128, cumulative = 0.234338
smoothSolver:  Solving for omega, Initial residual = 0.00398533, Final residual = 0.000177539, No Iterations 1
smoothSolver:  Solving for k, Initial residual = 0.0408161, Final residual = 0.00201928, No Iterations 1
ExecutionTime = 2.6296 s  ClockTime = 3 s

volFieldValue Uavg_propeller write:
    volAverage(propeller) of U = (0.409611 0.130654 -241.163)

surfaceFieldValue phi_farField write:
    orientedSum(farField) of phi = 149.516

surfaceFieldValue phi_top write:
    orientedSum(top) of phi = -153.827

Time = 21s

--> FOAM Warning : 
    From function void Foam::Function1s::Table<Type>::checkX(Foam::scalar) const [with Type = Foam::Vector2D<double>; Foam::scalar = double]
    in file lnInclude/Table.C at line 107
    "value (18.551) overflow"

--> FOAM Warning : 
    From function void Foam::Function1s::Table<Type>::checkX(Foam::scalar) const [with Type = Foam::Vector2D<double>; Foam::scalar = double]
    in file lnInclude/Table.C at line 107
    "value (18.5491) overflow"

smoothSolver:  Solving for Ux, Initial residual = 0.0591605, Final residual = 0.00271347, No Iterations 1
smoothSolver:  Solving for Uy, Initial residual = 0.0589974, Final residual = 0.00274132, No Iterations 1
smoothSolver:  Solving for Uz, Initial residual = 0.0259045, Final residual = 0.00104266, No Iterations 1
DICPCG:  Solving for p, Initial residual = 0.0712525, Final residual = 0.00312856, No Iterations 17
time step continuity errors : sum local = 1.74578, global = 0.0219057, cumulative = 0.256243
smoothSolver:  Solving for omega, Initial residual = 0.00359253, Final residual = 0.000158908, No Iterations 1
smoothSolver:  Solving for k, Initial residual = 0.0338665, Final residual = 0.00161672, No Iterations 1
ExecutionTime = 2.72968 s  ClockTime = 3 s

volFieldValue Uavg_propeller write:
    volAverage(propeller) of U = (0.260347 0.0823537 -228.443)

surfaceFieldValue phi_farField write:
    orientedSum(farField) of phi = 153.237

surfaceFieldValue phi_top write:
    orientedSum(top) of phi = -153.132

Time = 22s

--> FOAM Warning : 
    From function void Foam::Function1s::Table<Type>::checkX(Foam::scalar) const [with Type = Foam::Vector2D<double>; Foam::scalar = double]
    in file lnInclude/Table.C at line 107
    "value (17.5725) overflow"

--> FOAM Warning : 
    From function void Foam::Function1s::Table<Type>::checkX(Foam::scalar) const [with Type = Foam::Vector2D<double>; Foam::scalar = double]
    in file lnInclude/Table.C at line 107
    "value (17.5705) overflow"

smoothSolver:  Solving for Ux, Initial residual = 0.0554207, Final residual = 0.00258124, No Iterations 1
smoothSolver:  Solving for Uy, Initial residual = 0.0552453, Final residual = 0.00259871, No Iterations 1
smoothSolver:  Solving for Uz, Initial residual = 0.0270351, Final residual = 0.00110347, No Iterations 1
DICPCG:  Solving for p, Initial residual = 0.115421, Final residual = 0.00472924, No Iterations 17
time step continuity errors : sum local = 1.49741, global = -0.00670406, cumulative = 0.249539
smoothSolver:  Solving for omega, Initial residual = 0.00333226, Final residual = 0.000147862, No Iterations 1
smoothSolver:  Solving for k, Initial residual = 0.0302514, Final residual = 0.00152368, No Iterations 1
ExecutionTime = 2.82409 s  ClockTime = 3 s

volFieldValue Uavg_propeller write:
    volAverage(propeller) of U = (0.134116 0.0511593 -223.765)

surfaceFieldValue phi_farField write:
    orientedSum(farField) of phi = 152.81

surfaceFieldValue phi_top write:
    orientedSum(top) of phi = -152.842

Time = 23s

--> FOAM Warning : 
    From function void Foam::Function1s::Table<Type>::checkX(Foam::scalar) const [with Type = Foam::Vector2D<double>; Foam::scalar = double]
    in file lnInclude/Table.C at line 107
    "value (17.2127) overflow"

--> FOAM Warning : 
    From function void Foam::Function1s::Table<Type>::checkX(Foam::scalar) const [with Type = Foam::Vector2D<double>; Foam::scalar = double]
    in file lnInclude/Table.C at line 107
    "value (17.2106) overflow"

smoothSolver:  Solving for Ux, Initial residual = 0.0524505, Final residual = 0.00249365, No Iterations 1
smoothSolver:  Solving for Uy, Initial residual = 0.0522902, Final residual = 0.00250081, No Iterations 1
smoothSolver:  Solving for Uz, Initial residual = 0.0280584, Final residual = 0.00115936, No Iterations 1
DICPCG:  Solving for p, Initial residual = 0.222618, Final residual = 0.0084293, No Iterations 14
time step continuity errors : sum local = 1.29643, global = -0.165157, cumulative = 0.0843827
smoothSolver:  Solving for omega, Initial residual = 0.00321191, Final residual = 0.000143864, No Iterations 1
smoothSolver:  Solving for k, Initial residual = 0.0343215, Final residual = 0.00166472, No Iterations 1
ExecutionTime = 2.91915 s  ClockTime = 3 s

volFieldValue Uavg_propeller write:
    volAverage(propeller) of U = (0.0438687 0.0348894 -226.261)

surfaceFieldValue phi_farField write:
    orientedSum(farField) of phi = 151.299

surfaceFieldValue phi_top write:
    orientedSum(top) of phi = -152.092

Time = 24s

--> FOAM Warning : 
    From function void Foam::Function1s::Table<Type>::checkX(Foam::scalar) const [with Type = Foam::Vector2D<double>; Foam::scalar = double]
    in file lnInclude/Table.C at line 107
    "value (17.4047) overflow"

--> FOAM Warning : 
    From function void Foam::Function1s::Table<Type>::checkX(Foam::scalar) const [with Type = Foam::Vector2D<double>; Foam::scalar = double]
    in file lnInclude/Table.C at line 107
    "value (17.4027) overflow"

smoothSolver:  Solving for Ux, Initial residual = 0.0504487, Final residual = 0.00243776, No Iterations 1
smoothSolver:  Solving for Uy, Initial residual = 0.0502645, Final residual = 0.00243816, No Iterations 1
smoothSolver:  Solving for Uz, Initial residual = 0.0278895, Final residual = 0.00114427, No Iterations 1
DICPCG:  Solving for p, Initial residual = 0.355705, Final residual = 0.0167517, No Iterations 10
time step continuity errors : sum local = 1.58268, global = 0.158758, cumulative = 0.243141
smoothSolver:  Solving for omega, Initial residual = 0.00317908, Final residual = 0.00013987, No Iterations 1
smoothSolver:  Solving for k, Initial residual = 0.0350372, Final residual = 0.00161691, No Iterations 1
ExecutionTime = 3.00924 s  ClockTime = 4 s

volFieldValue Uavg_propeller write:
    volAverage(propeller) of U = (-0.00646208 0.0295135 -233.379)

surfaceFieldValue phi_farField write:
    orientedSum(farField) of phi = 151.667

surfaceFieldValue phi_top write:
    orientedSum(top) of phi = -150.905

Time = 25s

--> FOAM Warning : 
    From function void Foam::Function1s::Table<Type>::checkX(Foam::scalar) const [with Type = Foam::Vector2D<double>; Foam::scalar = double]
    in file lnInclude/Table.C at line 107
    "value (17.9522) overflow"

--> FOAM Warning : 
    From function void Foam::Function1s::Table<Type>::checkX(Foam::scalar) const [with Type = Foam::Vector2D<double>; Foam::scalar = double]
    in file lnInclude/Table.C at line 107
    "value (17.9503) overflow"

smoothSolver:  Solving for Ux, Initial residual = 0.0493387, Final residual = 0.00238102, No Iterations 1
smoothSolver:  Solving for Uy, Initial residual = 0.0491404, Final residual = 0.00238028, No Iterations 1
smoothSolver:  Solving for Uz, Initial residual = 0.026335, Final residual = 0.00107338, No Iterations 1
DICPCG:  Solving for p, Initial residual = 0.248932, Final residual = 0.011605, No Iterations 10
time step continuity errors : sum local = 1.53519, global = 0.556659, cumulative = 0.799799
smoothSolver:  Solving for omega, Initial residual = 0.00316707, Final residual = 0.000134671, No Iterations 1
smoothSolver:  Solving for k, Initial residual = 0.0335313, Final residual = 0.00158406, No Iterations 1
ExecutionTime = 3.09334 s  ClockTime = 4 s

volFieldValue Uavg_propeller write:
    volAverage(propeller) of U = (-0.0213184 0.0294853 -241.974)

surfaceFieldValue phi_farField write:
    orientedSum(farField) of phi = 153.018

surfaceFieldValue phi_top write:
    orientedSum(top) of phi = -150.346

Time = 26s

--> FOAM Warning : 
    From function void Foam::Function1s::Table<Type>::checkX(Foam::scalar) const [with Type = Foam::Vector2D<double>; Foam::scalar = double]
    in file lnInclude/Table.C at line 107
    "value (18.6134) overflow"

--> FOAM Warning : 
    From function void Foam::Function1s::Table<Type>::checkX(Foam::scalar) const [with Type = Foam::Vector2D<double>; Foam::scalar = double]
    in file lnInclude/Table.C at line 107
    "value (18.6115) overflow"

smoothSolver:  Solving for Ux, Initial residual = 0.0486116, Final residual = 0.0023325, No Iterations 1
smoothSolver:  Solving for Uy, Initial residual = 0.0484175, Final residual = 0.00232964, No Iterations 1
smoothSolver:  Solving for Uz, Initial residual = 0.0238622, Final residual = 0.000982763, No Iterations 1
DICPCG:  Solving for p, Initial residual = 0.165279, Final residual = 0.00762992, No Iterations 10
time step continuity errors : sum local = 1.47311, global = 0.594252, cumulative = 1.39405
smoothSolver:  Solving for omega, Initial residual = 0.00302854, Final residual = 0.000132427, No Iterations 1
smoothSolver:  Solving for k, Initial residual = 0.0329207, Final residual = 0.00156443, No Iterations 1
ExecutionTime = 3.18014 s  ClockTime = 4 s

volFieldValue Uavg_propeller write:
    volAverage(propeller) of U = (-0.00947291 0.0317923 -249.382)

surfaceFieldValue phi_farField write:
    orientedSum(farField) of phi = 153.297

surfaceFieldValue phi_top write:
    orientedSum(top) of phi = -150.444

Time = 27s

--> FOAM Warning : 
    From function void Foam::Function1s::Table<Type>::checkX(Foam::scalar) const [with Type = Foam::Vector2D<double>; Foam::scalar = double]
    in file lnInclude/Table.C at line 107
    "value (19.1833) overflow"

--> FOAM Warning : 
    From function void Foam::Function1s::Table<Type>::checkX(Foam::scalar) const [with Type = Foam::Vector2D<double>; Foam::scalar = double]
    in file lnInclude/Table.C at line 107
    "value (19.1814) overflow"

smoothSolver:  Solving for Ux, Initial residual = 0.0479109, Final residual = 0.00228808, No Iterations 1
smoothSolver:  Solving for Uy, Initial residual = 0.0477512, Final residual = 0.00228466, No Iterations 1
smoothSolver:  Solving for Uz, Initial residual = 0.0214116, Final residual = 0.000902919, No Iterations 1
DICPCG:  Solving for p, Initial residual = 0.12404, Final residual = 0.00594404, No Iterations 10
time step continuity errors : sum local = 1.48189, global = 0.231673, cumulative = 1.62572
smoothSolver:  Solving for omega, Initial residual = 0.00298819, Final residual = 0.000129557, No Iterations 1
smoothSolver:  Solving for k, Initial residual = 0.032985, Final residual = 0.001538, No Iterations 1
ExecutionTime = 3.26784 s  ClockTime = 4 s

volFieldValue Uavg_propeller write:
    volAverage(propeller) of U = (0.0164551 0.0342152 -254.038)

surfaceFieldValue phi_farField write:
    orientedSum(farField) of phi = 151.986

surfaceFieldValue phi_top write:
    orientedSum(top) of phi = -150.874

Time = 28s

--> FOAM Warning : 
    From function void Foam::Function1s::Table<Type>::checkX(Foam::scalar) const [with Type = Foam::Vector2D<double>; Foam::scalar = double]
    in file lnInclude/Table.C at line 107
    "value (19.5414) overflow"

--> FOAM Warning : 
    From function void Foam::Function1s::Table<Type>::checkX(Foam::scalar) const [with Type = Foam::Vector2D<double>; Foam::scalar = double]
    in file lnInclude/Table.C at line 107
    "value (19.5396) overflow"

smoothSolver:  Solving for Ux, Initial residual = 0.0468798, Final residual = 0.00223566, No Iterations 1
smoothSolver:  Solving for Uy, Initial residual = 0.0467537, Final residual = 0.00223033, No Iterations 1
smoothSolver:  Solving for Uz, Initial residual = 0.01956, Final residual = 0.000849318, No Iterations 1
DICPCG:  Solving for p, Initial residual = 0.108817, Final residual = 0.00504279, No Iterations 10
time step continuity errors : sum local = 1.41474, global = -0.19938, cumulative = 1.42634
smoothSolver:  Solving for omega, Initial residual = 0.00290678, Final residual = 0.000124525, No Iterations 1
smoothSolver:  Solving for k, Initial residual = 0.0334188, Final residual = 0.00155477, No Iterations 1
ExecutionTime = 3.3583 s  ClockTime = 4 s

volFieldValue Uavg_propeller write:
    volAverage(propeller) of U = (0.0443538 0.0361884 -255.523)

surfaceFieldValue phi_farField write:
    orientedSum(farField) of phi = 150.128

surfaceFieldValue phi_top write:
    orientedSum(top) of phi = -151.085

Time = 29s

--> FOAM Warning : 
    From function void Foam::Function1s::Table<Type>::checkX(Foam::scalar) const [with Type = Foam::Vector2D<double>; Foam::scalar = double]
    in file lnInclude/Table.C at line 107
    "value (19.6556) overflow"

--> FOAM Warning : 
    From function void Foam::Function1s::Table<Type>::checkX(Foam::scalar) const [with Type = Foam::Vector2D<double>; Foam::scalar = double]
    in file lnInclude/Table.C at line 107
    "value (19.6539) overflow"

smoothSolver:  Solving for Ux, Initial residual = 0.0453409, Final residual = 0.00216645, No Iterations 1
smoothSolver:  Solving for Uy, Initial residual = 0.0452312, Final residual = 0.00216034, No Iterations 1
smoothSolver:  Solving for Uz, Initial residual = 0.0190786, Final residual = 0.000835034, No Iterations 1
DICPCG:  Solving for p, Initial residual = 0.110748, Final residual = 0.00532764, No Iterations 12
time step continuity errors : sum local = 1.4567, global = -0.47725, cumulative = 0.949095
smoothSolver:  Solving for omega, Initial residual = 0.00287747, Final residual = 0.000122512, No Iterations 1
smoothSolver:  Solving for k, Initial residual = 0.0382744, Final residual = 0.00169161, No Iterations 1
ExecutionTime = 3.44943 s  ClockTime = 4 s

volFieldValue Uavg_propeller write:
    volAverage(propeller) of U = (0.066682 0.0392655 -254.373)

surfaceFieldValue phi_farField write:
    orientedSum(farField) of phi = 147.516

surfaceFieldValue phi_top write:
    orientedSum(top) of phi = -149.806

Time = 30s

--> FOAM Warning : 
    From function void Foam::Function1s::Table<Type>::checkX(Foam::scalar) const [with Type = Foam::Vector2D<double>; Foam::scalar = double]
    in file lnInclude/Table.C at line 107
    "value (19.5671) overflow"

--> FOAM Warning : 
    From function void Foam::Function1s::Table<Type>::checkX(Foam::scalar) const [with Type = Foam::Vector2D<double>; Foam::scalar = double]
    in file lnInclude/Table.C at line 107
    "value (19.5653) overflow"

smoothSolver:  Solving for Ux, Initial residual = 0.0435504, Final residual = 0.00209795, No Iterations 1
smoothSolver:  Solving for Uy, Initial residual = 0.043474, Final residual = 0.002089, No Iterations 1
smoothSolver:  Solving for Uz, Initial residual = 0.0193817, Final residual = 0.000844812, No Iterations 1
DICPCG:  Solving for p, Initial residual = 0.134392, Final residual = 0.0062474, No Iterations 16
time step continuity errors : sum local = 1.38478, global = 0.133481, cumulative = 1.08258
smoothSolver:  Solving for omega, Initial residual = 0.0028159, Final residual = 0.000121381, No Iterations 1
smoothSolver:  Solving for k, Initial residual = 0.0359793, Final residual = 0.00158465, No Iterations 1
ExecutionTime = 3.54371 s  ClockTime = 4 s

volFieldValue Uavg_propeller write:
    volAverage(propeller) of U = (0.0813575 0.0455101 -251.559)

surfaceFieldValue phi_farField write:
    orientedSum(farField) of phi = 149.313

surfaceFieldValue phi_top write:
    orientedSum(top) of phi = -148.672

Time = 31s

--> FOAM Warning : 
    From function void Foam::Function1s::Table<Type>::checkX(Foam::scalar) const [with Type = Foam::Vector2D<double>; Foam::scalar = double]
    in file lnInclude/Table.C at line 107
    "value (19.3507) overflow"

--> FOAM Warning : 
    From function void Foam::Function1s::Table<Type>::checkX(Foam::scalar) const [with Type = Foam::Vector2D<double>; Foam::scalar = double]
    in file lnInclude/Table.C at line 107
    "value (19.3489) overflow"

smoothSolver:  Solving for Ux, Initial residual = 0.0418809, Final residual = 0.00204641, No Iterations 1
smoothSolver:  Solving for Uy, Initial residual = 0.0418253, Final residual = 0.00203363, No Iterations 1
smoothSolver:  Solving for Uz, Initial residual = 0.0196036, Final residual = 0.000851021, No Iterations 1
DICPCG:  Solving for p, Initial residual = 0.253165, Final residual = 0.0106511, No Iterations 16
time step continuity errors : sum local = 1.21939, global = 0.18057, cumulative = 1.26315
smoothSolver:  Solving for omega, Initial residual = 0.00279069, Final residual = 0.000122289, No Iterations 1
smoothSolver:  Solving for k, Initial residual = 0.0338135, Final residual = 0.0015504, No Iterations 1
ExecutionTime = 3.63627 s  ClockTime = 4 s

volFieldValue Uavg_propeller write:
    volAverage(propeller) of U = (0.086914 0.0531226 -248.131)

surfaceFieldValue phi_farField write:
    orientedSum(farField) of phi = 148.786

surfaceFieldValue phi_top write:
    orientedSum(top) of phi = -147.919

Time = 32s

--> FOAM Warning : 
    From function void Foam::Function1s::Table<Type>::checkX(Foam::scalar) const [with Type = Foam::Vector2D<double>; Foam::scalar = double]
    in file lnInclude/Table.C at line 107
    "value (19.087) overflow"

--> FOAM Warning : 
    From function void Foam::Function1s::Table<Type>::checkX(Foam::scalar) const [with Type = Foam::Vector2D<double>; Foam::scalar = double]
    in file lnInclude/Table.C at line 107
    "value (19.0852) overflow"

smoothSolver:  Solving for Ux, Initial residual = 0.0402736, Final residual = 0.00200072, No Iterations 1
smoothSolver:  Solving for Uy, Initial residual = 0.040199, Final residual = 0.00198403, No Iterations 1
smoothSolver:  Solving for Uz, Initial residual = 0.0195711, Final residual = 0.000846576, No Iterations 1
DICPCG:  Solving for p, Initial residual = 0.37437, Final residual = 0.0173516, No Iterations 13
time step continuity errors : sum local = 1.28665, global = -0.0198891, cumulative = 1.24326
smoothSolver:  Solving for omega, Initial residual = 0.00284472, Final residual = 0.000125739, No Iterations 1
smoothSolver:  Solving for k, Initial residual = 0.035501, Final residual = 0.00156063, No Iterations 1
ExecutionTime = 3.72748 s  ClockTime = 4 s

volFieldValue Uavg_propeller write:
    volAverage(propeller) of U = (0.0820527 0.0594949 -245.029)

surfaceFieldValue phi_farField write:
    orientedSum(farField) of phi = 146.829

surfaceFieldValue phi_top write:
    orientedSum(top) of phi = -146.924

Time = 33s

--> FOAM Warning : 
    From function void Foam::Function1s::Table<Type>::checkX(Foam::scalar) const [with Type = Foam::Vector2D<double>; Foam::scalar = double]
    in file lnInclude/Table.C at line 107
    "value (18.8484) overflow"

--> FOAM Warning : 
    From function void Foam::Function1s::Table<Type>::checkX(Foam::scalar) const [with Type = Foam::Vector2D<double>; Foam::scalar = double]
    in file lnInclude/Table.C at line 107
    "value (18.8465) overflow"

smoothSolver:  Solving for Ux, Initial residual = 0.0388311, Final residual = 0.00195687, No Iterations 1
smoothSolver:  Solving for Uy, Initial residual = 0.0387547, Final residual = 0.00193815, No Iterations 1
smoothSolver:  Solving for Uz, Initial residual = 0.0192775, Final residual = 0.00083256, No Iterations 1
DICPCG:  Solving for p, Initial residual = 0.202319, Final residual = 0.00892676, No Iterations 13
time step continuity errors : sum local = 1.17131, global = 0.193828, cumulative = 1.43709
smoothSolver:  Solving for omega, Initial residual = 0.00282476, Final residual = 0.000126244, No Iterations 1
smoothSolver:  Solving for k, Initial residual = 0.0336761, Final residual = 0.00154394, No Iterations 1
ExecutionTime = 3.81898 s  ClockTime = 4 s

volFieldValue Uavg_propeller write:
    volAverage(propeller) of U = (0.0655527 0.0599382 -242.863)

surfaceFieldValue phi_farField write:
    orientedSum(farField) of phi = 146.968

surfaceFieldValue phi_top write:
    orientedSum(top) of phi = -146.038

Time = 34s

--> FOAM Warning : 
    From function void Foam::Function1s::Table<Type>::checkX(Foam::scalar) const [with Type = Foam::Vector2D<double>; Foam::scalar = double]
    in file lnInclude/Table.C at line 107
    "value (18.6818) overflow"

--> FOAM Warning : 
    From function void Foam::Function1s::Table<Type>::checkX(Foam::scalar) const [with Type = Foam::Vector2D<double>; Foam::scalar = double]
    in file lnInclude/Table.C at line 107
    "value (18.6799) overflow"

smoothSolver:  Solving for Ux, Initial residual = 0.0378098, Final residual = 0.00191468, No Iterations 1
smoothSolver:  Solving for Uy, Initial residual = 0.0377082, Final residual = 0.00189499, No Iterations 1
smoothSolver:  Solving for Uz, Initial residual = 0.0186239, Final residual = 0.000803404, No Iterations 1
DICPCG:  Solving for p, Initial residual = 0.156505, Final residual = 0.00710355, No Iterations 8
time step continuity errors : sum local = 1.17556, global = -0.430261, cumulative = 1.00682
smoothSolver:  Solving for omega, Initial residual = 0.00287291, Final residual = 0.000129949, No Iterations 1
smoothSolver:  Solving for k, Initial residual = 0.0359417, Final residual = 0.00162021, No Iterations 1
ExecutionTime = 3.90646 s  ClockTime = 4 s

volFieldValue Uavg_propeller write:
    volAverage(propeller) of U = (0.0449934 0.055797 -241.911)

surfaceFieldValue phi_farField write:
    orientedSum(farField) of phi = 143.79

surfaceFieldValue phi_top write:
    orientedSum(top) of phi = -145.856

Time = 35s

--> FOAM Warning : 
    From function void Foam::Function1s::Table<Type>::checkX(Foam::scalar) const [with Type = Foam::Vector2D<double>; Foam::scalar = double]
    in file lnInclude/Table.C at line 107
    "value (18.6085) overflow"

--> FOAM Warning : 
    From function void Foam::Function1s::Table<Type>::checkX(Foam::scalar) const [with Type = Foam::Vector2D<double>; Foam::scalar = double]
    in file lnInclude/Table.C at line 107
    "value (18.6067) overflow"

smoothSolver:  Solving for Ux, Initial residual = 0.0369583, Final residual = 0.00186493, No Iterations 1
smoothSolver:  Solving for Uy, Initial residual = 0.0368535, Final residual = 0.0018461, No Iterations 1
smoothSolver:  Solving for Uz, Initial residual = 0.0177609, Final residual = 0.000771047, No Iterations 1
DICPCG:  Solving for p, Initial residual = 0.157691, Final residual = 0.00785618, No Iterations 9
time step continuity errors : sum local = 1.26541, global = -0.332795, cumulative = 0.674029
smoothSolver:  Solving for omega, Initial residual = 0.00291659, Final residual = 0.000133327, No Iterations 1
smoothSolver:  Solving for k, Initial residual = 0.0369128, Final residual = 0.00158322, No Iterations 1
ExecutionTime = 3.993 s  ClockTime = 4 s

volFieldValue Uavg_propeller write:
    volAverage(propeller) of U = (0.0295666 0.0520036 -242.086)

surfaceFieldValue phi_farField write:
    orientedSum(farField) of phi = 143.084

surfaceFieldValue phi_top write:
    orientedSum(top) of phi = -144.682

Time = 36s

--> FOAM Warning : 
    From function void Foam::Function1s::Table<Type>::checkX(Foam::scalar) const [with Type = Foam::Vector2D<double>; Foam::scalar = double]
    in file lnInclude/Table.C at line 107
    "value (18.622) overflow"

--> FOAM Warning : 
    From function void Foam::Function1s::Table<Type>::checkX(Foam::scalar) const [with Type = Foam::Vector2D<double>; Foam::scalar = double]
    in file lnInclude/Table.C at line 107
    "value (18.6201) overflow"

smoothSolver:  Solving for Ux, Initial residual = 0.0360823, Final residual = 0.00181683, No Iterations 1
smoothSolver:  Solving for Uy, Initial residual = 0.0359753, Final residual = 0.00179744, No Iterations 1
smoothSolver:  Solving for Uz, Initial residual = 0.016869, Final residual = 0.000744329, No Iterations 1
DICPCG:  Solving for p, Initial residual = 0.153631, Final residual = 0.00557646, No Iterations 13
time step continuity errors : sum local = 0.908055, global = -0.157321, cumulative = 0.516708
smoothSolver:  Solving for omega, Initial residual = 0.00297851, Final residual = 0.000139576, No Iterations 1
smoothSolver:  Solving for k, Initial residual = 0.0337264, Final residual = 0.00153117, No Iterations 1
ExecutionTime = 4.08288 s  ClockTime = 5 s

volFieldValue Uavg_propeller write:
    volAverage(propeller) of U = (0.0197386 0.0486019 -243.047)

surfaceFieldValue phi_farField write:
    orientedSum(farField) of phi = 142.74

surfaceFieldValue phi_top write:
    orientedSum(top) of phi = -143.495

Time = 37s

--> FOAM Warning : 
    From function void Foam::Function1s::Table<Type>::checkX(Foam::scalar) const [with Type = Foam::Vector2D<double>; Foam::scalar = double]
    in file lnInclude/Table.C at line 107
    "value (18.6959) overflow"

--> FOAM Warning : 
    From function void Foam::Function1s::Table<Type>::checkX(Foam::scalar) const [with Type = Foam::Vector2D<double>; Foam::scalar = double]
    in file lnInclude/Table.C at line 107
    "value (18.694) overflow"

smoothSolver:  Solving for Ux, Initial residual = 0.0351668, Final residual = 0.00177466, No Iterations 1
smoothSolver:  Solving for Uy, Initial residual = 0.0350715, Final residual = 0.00175492, No Iterations 1
smoothSolver:  Solving for Uz, Initial residual = 0.0160585, Final residual = 0.000720799, No Iterations 1
DICPCG:  Solving for p, Initial residual = 0.128879, Final residual = 0.00564387, No Iterations 13
time step continuity errors : sum local = 1.07328, global = -0.229068, cumulative = 0.28764
smoothSolver:  Solving for omega, Initial residual = 0.00312002, Final residual = 0.000149279, No Iterations 1
smoothSolver:  Solving for k, Initial residual = 0.0343508, Final residual = 0.00156511, No Iterations 1
ExecutionTime = 4.17273 s  ClockTime = 5 s

volFieldValue Uavg_propeller write:
    volAverage(propeller) of U = (0.0144606 0.0457443 -244.291)

surfaceFieldValue phi_farField write:
    orientedSum(farField) of phi = 141.195

surfaceFieldValue phi_top write:
    orientedSum(top) of phi = -142.295

Time = 38s

--> FOAM Warning : 
    From function void Foam::Function1s::Table<Type>::checkX(Foam::scalar) const [with Type = Foam::Vector2D<double>; Foam::scalar = double]
    in file lnInclude/Table.C at line 107
    "value (18.7916) overflow"

--> FOAM Warning : 
    From function void Foam::Function1s::Table<Type>::checkX(Foam::scalar) const [with Type = Foam::Vector2D<double>; Foam::scalar = double]
    in file lnInclude/Table.C at line 107
    "value (18.7897) overflow"

smoothSolver:  Solving for Ux, Initial residual = 0.0341597, Final residual = 0.00173127, No Iterations 1
smoothSolver:  Solving for Uy, Initial residual = 0.0340598, Final residual = 0.00171162, No Iterations 1
smoothSolver:  Solving for Uz, Initial residual = 0.0158221, Final residual = 0.000712167, No Iterations 1
DICPCG:  Solving for p, Initial residual = 0.105928, Final residual = 0.00529163, No Iterations 13
time step continuity errors : sum local = 1.20618, global = -0.241634, cumulative = 0.0460057
smoothSolver:  Solving for omega, Initial residual = 0.00328552, Final residual = 0.000160186, No Iterations 1
smoothSolver:  Solving for k, Initial residual = 0.0359671, Final residual = 0.00161154, No Iterations 1
ExecutionTime = 4.26147 s  ClockTime = 5 s

volFieldValue Uavg_propeller write:
    volAverage(propeller) of U = (0.0131186 0.0446717 -245.421)

surfaceFieldValue phi_farField write:
    orientedSum(farField) of phi = 139.962

surfaceFieldValue phi_top write:
    orientedSum(top) of phi = -141.122

Time = 39s

--> FOAM Warning : 
    From function void Foam::Function1s::Table<Type>::checkX(Foam::scalar) const [with Type = Foam::Vector2D<double>; Foam::scalar = double]
    in file lnInclude/Table.C at line 107
    "value (18.8785) overflow"

--> FOAM Warning : 
    From function void Foam::Function1s::Table<Type>::checkX(Foam::scalar) const [with Type = Foam::Vector2D<double>; Foam::scalar = double]
    in file lnInclude/Table.C at line 107
    "value (18.8767) overflow"

smoothSolver:  Solving for Ux, Initial residual = 0.0330745, Final residual = 0.00168911, No Iterations 1
smoothSolver:  Solving for Uy, Initial residual = 0.0329806, Final residual = 0.00167047, No Iterations 1
smoothSolver:  Solving for Uz, Initial residual = 0.0160165, Final residual = 0.000714819, No Iterations 1
DICPCG:  Solving for p, Initial residual = 0.0888437, Final residual = 0.00330982, No Iterations 14
time step continuity errors : sum local = 0.881252, global = -0.0119346, cumulative = 0.0340711
smoothSolver:  Solving for omega, Initial residual = 0.00347022, Final residual = 0.000171873, No Iterations 1
smoothSolver:  Solving for k, Initial residual = 0.0360796, Final residual = 0.0016094, No Iterations 1
ExecutionTime = 4.35661 s  ClockTime = 5 s

volFieldValue Uavg_propeller write:
    volAverage(propeller) of U = (0.0148706 0.0459377 -246.208)

surfaceFieldValue phi_farField write:
    orientedSum(farField) of phi = 139.46

surfaceFieldValue phi_top write:
    orientedSum(top) of phi = -139.518

Time = 40s

--> FOAM Warning : 
    From function void Foam::Function1s::Table<Type>::checkX(Foam::scalar) const [with Type = Foam::Vector2D<double>; Foam::scalar = double]
    in file lnInclude/Table.C at line 107
    "value (18.939) overflow"

--> FOAM Warning : 
    From function void Foam::Function1s::Table<Type>::checkX(Foam::scalar) const [with Type = Foam::Vector2D<double>; Foam::scalar = double]
    in file lnInclude/Table.C at line 107
    "value (18.9372) overflow"

smoothSolver:  Solving for Ux, Initial residual = 0.0319694, Final residual = 0.00164801, No Iterations 1
smoothSolver:  Solving for Uy, Initial residual = 0.0318828, Final residual = 0.00163166, No Iterations 1
smoothSolver:  Solving for Uz, Initial residual = 0.0163221, Final residual = 0.000722459, No Iterations 1
DICPCG:  Solving for p, Initial residual = 0.0742342, Final residual = 0.00327658, No Iterations 13
time step continuity errors : sum local = 1.01336, global = -0.0958188, cumulative = -0.0617477
smoothSolver:  Solving for omega, Initial residual = 0.0036812, Final residual = 0.0001846, No Iterations 1
smoothSolver:  Solving for k, Initial residual = 0.0353138, Final residual = 0.0015516, No Iterations 1
ExecutionTime = 4.45222 s  ClockTime = 5 s

volFieldValue Uavg_propeller write:
    volAverage(propeller) of U = (0.0175117 0.0482661 -246.55)

surfaceFieldValue phi_farField write:
    orientedSum(farField) of phi = 138.124

surfaceFieldValue phi_top write:
    orientedSum(top) of phi = -138.584

Time = 41s

--> FOAM Warning : 
    From function void Foam::Function1s::Table<Type>::checkX(Foam::scalar) const [with Type = Foam::Vector2D<double>; Foam::scalar = double]
    in file lnInclude/Table.C at line 107
    "value (18.9654) overflow"

--> FOAM Warning : 
    From function void Foam::Function1s::Table<Type>::checkX(Foam::scalar) const [with Type = Foam::Vector2D<double>; Foam::scalar = double]
    in file lnInclude/Table.C at line 107
    "value (18.9636) overflow"

smoothSolver:  Solving for Ux, Initial residual = 0.0309137, Final residual = 0.0016094, No Iterations 1
smoothSolver:  Solving for Uy, Initial residual = 0.0308481, Final residual = 0.00159604, No Iterations 1
smoothSolver:  Solving for Uz, Initial residual = 0.0165753, Final residual = 0.000733228, No Iterations 1
DICPCG:  Solving for p, Initial residual = 0.0655152, Final residual = 0.0028301, No Iterations 12
time step continuity errors : sum local = 0.957361, global = -0.195765, cumulative = -0.257513
smoothSolver:  Solving for omega, Initial residual = 0.00390954, Final residual = 0.000198179, No Iterations 1
smoothSolver:  Solving for k, Initial residual = 0.0360302, Final residual = 0.00155941, No Iterations 1
ExecutionTime = 4.53979 s  ClockTime = 5 s

volFieldValue Uavg_propeller write:
    volAverage(propeller) of U = (0.0195183 0.0504453 -246.491)

surfaceFieldValue phi_farField write:
    orientedSum(farField) of phi = 136.564

surfaceFieldValue phi_top write:
    orientedSum(top) of phi = -137.504

Time = 42s

--> FOAM Warning : 
    From function void Foam::Function1s::Table<Type>::checkX(Foam::scalar) const [with Type = Foam::Vector2D<double>; Foam::scalar = double]
    in file lnInclude/Table.C at line 107
    "value (18.9609) overflow"

--> FOAM Warning : 
    From function void Foam::Function1s::Table<Type>::checkX(Foam::scalar) const [with Type = Foam::Vector2D<double>; Foam::scalar = double]
    in file lnInclude/Table.C at line 107
    "value (18.959) overflow"

smoothSolver:  Solving for Ux, Initial residual = 0.0299878, Final residual = 0.00157272, No Iterations 1
smoothSolver:  Solving for Uy, Initial residual = 0.0299015, Final residual = 0.00156295, No Iterations 1
smoothSolver:  Solving for Uz, Initial residual = 0.0167737, Final residual = 0.000747405, No Iterations 1
DICPCG:  Solving for p, Initial residual = 0.0602954, Final residual = 0.00284345, No Iterations 11
time step continuity errors : sum local = 1.0076, global = -0.277311, cumulative = -0.534824
smoothSolver:  Solving for omega, Initial residual = 0.00414284, Final residual = 0.000210901, No Iterations 1
smoothSolver:  Solving for k, Initial residual = 0.0359718, Final residual = 0.00154522, No Iterations 1
ExecutionTime = 4.62927 s  ClockTime = 5 s

volFieldValue Uavg_propeller write:
    volAverage(propeller) of U = (0.0209919 0.0524425 -246.164)

surfaceFieldValue phi_farField write:
    orientedSum(farField) of phi = 134.813

surfaceFieldValue phi_top write:
    orientedSum(top) of phi = -136.144

Time = 43s

--> FOAM Warning : 
    From function void Foam::Function1s::Table<Type>::checkX(Foam::scalar) const [with Type = Foam::Vector2D<double>; Foam::scalar = double]
    in file lnInclude/Table.C at line 107
    "value (18.9357) overflow"

--> FOAM Warning : 
    From function void Foam::Function1s::Table<Type>::checkX(Foam::scalar) const [with Type = Foam::Vector2D<double>; Foam::scalar = double]
    in file lnInclude/Table.C at line 107
    "value (18.9338) overflow"

smoothSolver:  Solving for Ux, Initial residual = 0.0292843, Final residual = 0.00154061, No Iterations 1
smoothSolver:  Solving for Uy, Initial residual = 0.0291941, Final residual = 0.00153425, No Iterations 1
smoothSolver:  Solving for Uz, Initial residual = 0.0169559, Final residual = 0.00076786, No Iterations 1
DICPCG:  Solving for p, Initial residual = 0.0564596, Final residual = 0.00263228, No Iterations 11
time step continuity errors : sum local = 0.966336, global = -0.262434, cumulative = -0.797259
smoothSolver:  Solving for omega, Initial residual = 0.00437843, Final residual = 0.000223232, No Iterations 1
smoothSolver:  Solving for k, Initial residual = 0.0340815, Final residual = 0.00152176, No Iterations 1
ExecutionTime = 4.71957 s  ClockTime = 5 s

volFieldValue Uavg_propeller write:
    volAverage(propeller) of U = (0.0215548 0.0538203 -245.705)

surfaceFieldValue phi_farField write:
    orientedSum(farField) of phi = 133.326

surfaceFieldValue phi_top write:
    orientedSum(top) of phi = -134.586

Time = 44s

--> FOAM Warning : 
    From function void Foam::Function1s::Table<Type>::checkX(Foam::scalar) const [with Type = Foam::Vector2D<double>; Foam::scalar = double]
    in file lnInclude/Table.C at line 107
    "value (18.9004) overflow"

--> FOAM Warning : 
    From function void Foam::Function1s::Table<Type>::checkX(Foam::scalar) const [with Type = Foam::Vector2D<double>; Foam::scalar = double]
    in file lnInclude/Table.C at line 107
    "value (18.8986) overflow"

smoothSolver:  Solving for Ux, Initial residual = 0.0286809, Final residual = 0.00151245, No Iterations 1
smoothSolver:  Solving for Uy, Initial residual = 0.0285823, Final residual = 0.00150895, No Iterations 1
smoothSolver:  Solving for Uz, Initial residual = 0.0171758, Final residual = 0.000795254, No Iterations 1
DICPCG:  Solving for p, Initial residual = 0.0538617, Final residual = 0.00265547, No Iterations 11
time step continuity errors : sum local = 0.999102, global = -0.259209, cumulative = -1.05647
smoothSolver:  Solving for omega, Initial residual = 0.004654, Final residual = 0.000236728, No Iterations 1
smoothSolver:  Solving for k, Initial residual = 0.0343969, Final residual = 0.00154612, No Iterations 1
ExecutionTime = 4.81025 s  ClockTime = 5 s

volFieldValue Uavg_propeller write:
    volAverage(propeller) of U = (0.0200328 0.0535497 -245.23)

surfaceFieldValue phi_farField write:
    orientedSum(farField) of phi = 131.751

surfaceFieldValue phi_top write:
    orientedSum(top) of phi = -132.995

Time = 45s

--> FOAM Warning : 
    From function void Foam::Function1s::Table<Type>::checkX(Foam::scalar) const [with Type = Foam::Vector2D<double>; Foam::scalar = double]
    in file lnInclude/Table.C at line 107
    "value (18.8638) overflow"

--> FOAM Warning : 
    From function void Foam::Function1s::Table<Type>::checkX(Foam::scalar) const [with Type = Foam::Vector2D<double>; Foam::scalar = double]
    in file lnInclude/Table.C at line 107
    "value (18.862) overflow"

smoothSolver:  Solving for Ux, Initial residual = 0.02814, Final residual = 0.00148798, No Iterations 1
smoothSolver:  Solving for Uy, Initial residual = 0.0280188, Final residual = 0.00148868, No Iterations 1
smoothSolver:  Solving for Uz, Initial residual = 0.0174525, Final residual = 0.000830111, No Iterations 1
DICPCG:  Solving for p, Initial residual = 0.0508416, Final residual = 0.00230558, No Iterations 12
time step continuity errors : sum local = 0.903247, global = -0.189991, cumulative = -1.24646
smoothSolver:  Solving for omega, Initial residual = 0.00494367, Final residual = 0.000250046, No Iterations 1
smoothSolver:  Solving for k, Initial residual = 0.0363269, Final residual = 0.00159389, No Iterations 1
ExecutionTime = 4.89606 s  ClockTime = 5 s

volFieldValue Uavg_propeller write:
    volAverage(propeller) of U = (0.0158903 0.0512097 -244.793)

surfaceFieldValue phi_farField write:
    orientedSum(farField) of phi = 130.341

surfaceFieldValue phi_top write:
    orientedSum(top) of phi = -131.253

Time = 46s

--> FOAM Warning : 
    From function void Foam::Function1s::Table<Type>::checkX(Foam::scalar) const [with Type = Foam::Vector2D<double>; Foam::scalar = double]
    in file lnInclude/Table.C at line 107
    "value (18.8302) overflow"

--> FOAM Warning : 
    From function void Foam::Function1s::Table<Type>::checkX(Foam::scalar) const [with Type = Foam::Vector2D<double>; Foam::scalar = double]
    in file lnInclude/Table.C at line 107
    "value (18.8284) overflow"

smoothSolver:  Solving for Ux, Initial residual = 0.0276068, Final residual = 0.00146705, No Iterations 1
smoothSolver:  Solving for Uy, Initial residual = 0.027498, Final residual = 0.00147016, No Iterations 1
smoothSolver:  Solving for Uz, Initial residual = 0.017866, Final residual = 0.000869821, No Iterations 1
DICPCG:  Solving for p, Initial residual = 0.0477789, Final residual = 0.00223803, No Iterations 12
time step continuity errors : sum local = 0.91427, global = -0.239194, cumulative = -1.48565
smoothSolver:  Solving for omega, Initial residual = 0.00522448, Final residual = 0.000263983, No Iterations 1
smoothSolver:  Solving for k, Initial residual = 0.0351381, Final residual = 0.00159201, No Iterations 1
ExecutionTime = 4.99015 s  ClockTime = 5 s

volFieldValue Uavg_propeller write:
    volAverage(propeller) of U = (0.00907317 0.0467278 -244.41)

surfaceFieldValue phi_farField write:
    orientedSum(farField) of phi = 128.398

surfaceFieldValue phi_top write:
    orientedSum(top) of phi = -129.546

Time = 47s

--> FOAM Warning : 
    From function void Foam::Function1s::Table<Type>::checkX(Foam::scalar) const [with Type = Foam::Vector2D<double>; Foam::scalar = double]
    in file lnInclude/Table.C at line 107
    "value (18.8008) overflow"

--> FOAM Warning : 
    From function void Foam::Function1s::Table<Type>::checkX(Foam::scalar) const [with Type = Foam::Vector2D<double>; Foam::scalar = double]
    in file lnInclude/Table.C at line 107
    "value (18.7989) overflow"

smoothSolver:  Solving for Ux, Initial residual = 0.0270911, Final residual = 0.00145231, No Iterations 1
smoothSolver:  Solving for Uy, Initial residual = 0.026967, Final residual = 0.00145748, No Iterations 1
smoothSolver:  Solving for Uz, Initial residual = 0.0183996, Final residual = 0.000911403, No Iterations 1
DICPCG:  Solving for p, Initial residual = 0.0453705, Final residual = 0.00204316, No Iterations 12
time step continuity errors : sum local = 0.867238, global = -0.286781, cumulative = -1.77243
smoothSolver:  Solving for omega, Initial residual = 0.00552222, Final residual = 0.00027761, No Iterations 1
smoothSolver:  Solving for k, Initial residual = 0.0347583, Final residual = 0.00160383, No Iterations 1
ExecutionTime = 5.07907 s  ClockTime = 6 s

volFieldValue Uavg_propeller write:
    volAverage(propeller) of U = (0.000964975 0.0413727 -244.099)

surfaceFieldValue phi_farField write:
    orientedSum(farField) of phi = 126.35

surfaceFieldValue phi_top write:
    orientedSum(top) of phi = -127.727

Time = 48s

--> FOAM Warning : 
    From function void Foam::Function1s::Table<Type>::checkX(Foam::scalar) const [with Type = Foam::Vector2D<double>; Foam::scalar = double]
    in file lnInclude/Table.C at line 107
    "value (18.7768) overflow"

--> FOAM Warning : 
    From function void Foam::Function1s::Table<Type>::checkX(Foam::scalar) const [with Type = Foam::Vector2D<double>; Foam::scalar = double]
    in file lnInclude/Table.C at line 107
    "value (18.775) overflow"

smoothSolver:  Solving for Ux, Initial residual = 0.0266185, Final residual = 0.00144452, No Iterations 1
smoothSolver:  Solving for Uy, Initial residual = 0.0264908, Final residual = 0.00145014, No Iterations 1
smoothSolver:  Solving for Uz, Initial residual = 0.0189486, Final residual = 0.000949511, No Iterations 1
DICPCG:  Solving for p, Initial residual = 0.0435363, Final residual = 0.00211092, No Iterations 11
time step continuity errors : sum local = 0.923363, global = -0.342509, cumulative = -2.11494
smoothSolver:  Solving for omega, Initial residual = 0.00586675, Final residual = 0.000294258, No Iterations 1
smoothSolver:  Solving for k, Initial residual = 0.0379914, Final residual = 0.00173752, No Iterations 1
ExecutionTime = 5.17034 s  ClockTime = 6 s

volFieldValue Uavg_propeller write:
    volAverage(propeller) of U = (-0.00709505 0.0363351 -243.873)

surfaceFieldValue phi_farField write:
    orientedSum(farField) of phi = 124.177

surfaceFieldValue phi_top write:
    orientedSum(top) of phi = -125.821

Time = 49s

--> FOAM Warning : 
    From function void Foam::Function1s::Table<Type>::checkX(Foam::scalar) const [with Type = Foam::Vector2D<double>; Foam::scalar = double]
    in file lnInclude/Table.C at line 107
    "value (18.7594) overflow"

--> FOAM Warning : 
    From function void Foam::Function1s::Table<Type>::checkX(Foam::scalar) const [with Type = Foam::Vector2D<double>; Foam::scalar = double]
    in file lnInclude/Table.C at line 107
    "value (18.7576) overflow"

smoothSolver:  Solving for Ux, Initial residual = 0.0262598, Final residual = 0.00144226, No Iterations 1
smoothSolver:  Solving for Uy, Initial residual = 0.0261213, Final residual = 0.00144913, No Iterations 1
smoothSolver:  Solving for Uz, Initial residual = 0.0193332, Final residual = 0.000980053, No Iterations 1
DICPCG:  Solving for p, Initial residual = 0.0420906, Final residual = 0.00198145, No Iterations 11
time step continuity errors : sum local = 0.886751, global = -0.308481, cumulative = -2.42342
smoothSolver:  Solving for omega, Initial residual = 0.00619035, Final residual = 0.000310591, No Iterations 1
smoothSolver:  Solving for k, Initial residual = 0.0356649, Final residual = 0.00169973, No Iterations 1
ExecutionTime = 5.26511 s  ClockTime = 6 s

volFieldValue Uavg_propeller write:
    volAverage(propeller) of U = (-0.0137803 0.0328177 -243.726)

surfaceFieldValue phi_farField write:
    orientedSum(farField) of phi = 122.165

surfaceFieldValue phi_top write:
    orientedSum(top) of phi = -123.646

Time = 50s

--> FOAM Warning : 
    From function void Foam::Function1s::Table<Type>::checkX(Foam::scalar) const [with Type = Foam::Vector2D<double>; Foam::scalar = double]
    in file lnInclude/Table.C at line 107
    "value (18.7481) overflow"

--> FOAM Warning : 
    From function void Foam::Function1s::Table<Type>::checkX(Foam::scalar) const [with Type = Foam::Vector2D<double>; Foam::scalar = double]
    in file lnInclude/Table.C at line 107
    "value (18.7463) overflow"

smoothSolver:  Solving for Ux, Initial residual = 0.0260233, Final residual = 0.00144608, No Iterations 1
smoothSolver:  Solving for Uy, Initial residual = 0.025876, Final residual = 0.00145285, No Iterations 1
smoothSolver:  Solving for Uz, Initial residual = 0.0194715, Final residual = 0.000999916, No Iterations 1
DICPCG:  Solving for p, Initial residual = 0.040759, Final residual = 0.00196658, No Iterations 11
time step continuity errors : sum local = 0.900082, global = -0.240907, cumulative = -2.66433
smoothSolver:  Solving for omega, Initial residual = 0.00658716, Final residual = 0.000328915, No Iterations 1
smoothSolver:  Solving for k, Initial residual = 0.0347636, Final residual = 0.00166933, No Iterations 1
ExecutionTime = 5.57259 s  ClockTime = 6 s

volFieldValue Uavg_propeller write:
    volAverage(propeller) of U = (-0.0184121 0.0313329 -243.618)

surfaceFieldValue phi_farField write:
    orientedSum(farField) of phi = 120.125

surfaceFieldValue phi_top write:
    orientedSum(top) of phi = -121.281

Time = 51s

--> FOAM Warning : 
    From function void Foam::Function1s::Table<Type>::checkX(Foam::scalar) const [with Type = Foam::Vector2D<double>; Foam::scalar = double]
    in file lnInclude/Table.C at line 107
    "value (18.7398) overflow"

--> FOAM Warning : 
    From function void Foam::Function1s::Table<Type>::checkX(Foam::scalar) const [with Type = Foam::Vector2D<double>; Foam::scalar = double]
    in file lnInclude/Table.C at line 107
    "value (18.738) overflow"

smoothSolver:  Solving for Ux, Initial residual = 0.0259308, Final residual = 0.00145374, No Iterations 1
smoothSolver:  Solving for Uy, Initial residual = 0.0257806, Final residual = 0.00146071, No Iterations 1
smoothSolver:  Solving for Uz, Initial residual = 0.0193116, Final residual = 0.00100613, No Iterations 1
DICPCG:  Solving for p, Initial residual = 0.0398394, Final residual = 0.00195717, No Iterations 11
time step continuity errors : sum local = 0.901987, global = -0.15696, cumulative = -2.82129
smoothSolver:  Solving for omega, Initial residual = 0.0070151, Final residual = 0.000347374, No Iterations 1
smoothSolver:  Solving for k, Initial residual = 0.0338996, Final residual = 0.00163017, No Iterations 1
ExecutionTime = 5.66696 s  ClockTime = 6 s

volFieldValue Uavg_propeller write:
    volAverage(propeller) of U = (-0.0214532 0.0312865 -243.508)

surfaceFieldValue phi_farField write:
    orientedSum(farField) of phi = 117.996

surfaceFieldValue phi_top write:
    orientedSum(top) of phi = -118.749

Time = 52s

--> FOAM Warning : 
    From function void Foam::Function1s::Table<Type>::checkX(Foam::scalar) const [with Type = Foam::Vector2D<double>; Foam::scalar = double]
    in file lnInclude/Table.C at line 107
    "value (18.7314) overflow"

--> FOAM Warning : 
    From function void Foam::Function1s::Table<Type>::checkX(Foam::scalar) const [with Type = Foam::Vector2D<double>; Foam::scalar = double]
    in file lnInclude/Table.C at line 107
    "value (18.7295) overflow"

smoothSolver:  Solving for Ux, Initial residual = 0.025964, Final residual = 0.00146438, No Iterations 1
smoothSolver:  Solving for Uy, Initial residual = 0.0258165, Final residual = 0.00147287, No Iterations 1
smoothSolver:  Solving for Uz, Initial residual = 0.0188743, Final residual = 0.000998908, No Iterations 1
DICPCG:  Solving for p, Initial residual = 0.0393913, Final residual = 0.00190179, No Iterations 11
time step continuity errors : sum local = 0.877498, global = -0.0704377, cumulative = -2.89173
smoothSolver:  Solving for omega, Initial residual = 0.00741603, Final residual = 0.000364456, No Iterations 1
[...]
    orientedSum(farField) of phi = 92.4045

surfaceFieldValue phi_top write:
    orientedSum(top) of phi = -92.3205

Time = 288s

--> FOAM Warning : 
    From function void Foam::Function1s::Table<Type>::checkX(Foam::scalar) const [with Type = Foam::Vector2D<double>; Foam::scalar = double]
    in file lnInclude/Table.C at line 107
    "value (18.2536) overflow"

--> FOAM Warning : 
    From function void Foam::Function1s::Table<Type>::checkX(Foam::scalar) const [with Type = Foam::Vector2D<double>; Foam::scalar = double]
    in file lnInclude/Table.C at line 107
    "value (18.2517) overflow"

smoothSolver:  Solving for Ux, Initial residual = 0.000147316, Final residual = 6.07338e-06, No Iterations 1
smoothSolver:  Solving for Uy, Initial residual = 0.000172517, Final residual = 7.2465e-06, No Iterations 1
smoothSolver:  Solving for Uz, Initial residual = 6.04402e-05, Final residual = 1.71767e-06, No Iterations 1
DICPCG:  Solving for p, Initial residual = 0.00147802, Final residual = 7.13863e-05, No Iterations 6
time step continuity errors : sum local = 0.0487439, global = 0.0152203, cumulative = 5.14692
smoothSolver:  Solving for omega, Initial residual = 4.32005e-05, Final residual = 2.11534e-06, No Iterations 1
smoothSolver:  Solving for k, Initial residual = 0.000980947, Final residual = 3.29425e-05, No Iterations 1
ExecutionTime = 27.8308 s  ClockTime = 28 s

volFieldValue Uavg_propeller write:
    volAverage(propeller) of U = (-0.000550002 0.00463379 -237.295)

surfaceFieldValue phi_farField write:
    orientedSum(farField) of phi = 92.405

surfaceFieldValue phi_top write:
    orientedSum(top) of phi = -92.332

Time = 289s

--> FOAM Warning : 
    From function void Foam::Function1s::Table<Type>::checkX(Foam::scalar) const [with Type = Foam::Vector2D<double>; Foam::scalar = double]
    in file lnInclude/Table.C at line 107
    "value (18.2535) overflow"

--> FOAM Warning : 
    From function void Foam::Function1s::Table<Type>::checkX(Foam::scalar) const [with Type = Foam::Vector2D<double>; Foam::scalar = double]
    in file lnInclude/Table.C at line 107
    "value (18.2516) overflow"

smoothSolver:  Solving for Ux, Initial residual = 0.000145308, Final residual = 5.9634e-06, No Iterations 1
smoothSolver:  Solving for Uy, Initial residual = 0.000169524, Final residual = 6.99379e-06, No Iterations 1
smoothSolver:  Solving for Uz, Initial residual = 6.02206e-05, Final residual = 1.7229e-06, No Iterations 1
DICPCG:  Solving for p, Initial residual = 0.00147449, Final residual = 7.13395e-05, No Iterations 6
time step continuity errors : sum local = 0.0485797, global = 0.0132806, cumulative = 5.1602
smoothSolver:  Solving for omega, Initial residual = 4.30292e-05, Final residual = 2.10445e-06, No Iterations 1
smoothSolver:  Solving for k, Initial residual = 0.000970587, Final residual = 3.27229e-05, No Iterations 1
ExecutionTime = 27.9178 s  ClockTime = 28 s

volFieldValue Uavg_propeller write:
    volAverage(propeller) of U = (-0.00038539 0.00441555 -237.294)

surfaceFieldValue phi_farField write:
    orientedSum(farField) of phi = 92.4062

surfaceFieldValue phi_top write:
    orientedSum(top) of phi = -92.3424

Time = 290s

--> FOAM Warning : 
    From function void Foam::Function1s::Table<Type>::checkX(Foam::scalar) const [with Type = Foam::Vector2D<double>; Foam::scalar = double]
    in file lnInclude/Table.C at line 107
    "value (18.2534) overflow"

--> FOAM Warning : 
    From function void Foam::Function1s::Table<Type>::checkX(Foam::scalar) const [with Type = Foam::Vector2D<double>; Foam::scalar = double]
    in file lnInclude/Table.C at line 107
    "value (18.2515) overflow"

smoothSolver:  Solving for Ux, Initial residual = 0.000143368, Final residual = 5.86451e-06, No Iterations 1
smoothSolver:  Solving for Uy, Initial residual = 0.000166819, Final residual = 6.77249e-06, No Iterations 1
smoothSolver:  Solving for Uz, Initial residual = 5.99721e-05, Final residual = 1.72656e-06, No Iterations 1
DICPCG:  Solving for p, Initial residual = 0.00146167, Final residual = 7.15595e-05, No Iterations 6
time step continuity errors : sum local = 0.0484783, global = 0.0113446, cumulative = 5.17155
smoothSolver:  Solving for omega, Initial residual = 4.29063e-05, Final residual = 2.08335e-06, No Iterations 1
smoothSolver:  Solving for k, Initial residual = 0.000965423, Final residual = 3.26762e-05, No Iterations 1
ExecutionTime = 28.0068 s  ClockTime = 28 s

volFieldValue Uavg_propeller write:
    volAverage(propeller) of U = (-0.000228528 0.00416743 -237.292)

surfaceFieldValue phi_farField write:
    orientedSum(farField) of phi = 92.4074

surfaceFieldValue phi_top write:
    orientedSum(top) of phi = -92.3529

Time = 291s

--> FOAM Warning : 
    From function void Foam::Function1s::Table<Type>::checkX(Foam::scalar) const [with Type = Foam::Vector2D<double>; Foam::scalar = double]
    in file lnInclude/Table.C at line 107
    "value (18.2533) overflow"

--> FOAM Warning : 
    From function void Foam::Function1s::Table<Type>::checkX(Foam::scalar) const [with Type = Foam::Vector2D<double>; Foam::scalar = double]
    in file lnInclude/Table.C at line 107
    "value (18.2513) overflow"

smoothSolver:  Solving for Ux, Initial residual = 0.000141514, Final residual = 5.78202e-06, No Iterations 1
smoothSolver:  Solving for Uy, Initial residual = 0.000164342, Final residual = 6.57945e-06, No Iterations 1
smoothSolver:  Solving for Uz, Initial residual = 5.95735e-05, Final residual = 1.72453e-06, No Iterations 1
DICPCG:  Solving for p, Initial residual = 0.0014299, Final residual = 6.03538e-05, No Iterations 7
time step continuity errors : sum local = 0.0410162, global = 0.00903349, cumulative = 5.18058
smoothSolver:  Solving for omega, Initial residual = 4.30189e-05, Final residual = 2.05582e-06, No Iterations 1
smoothSolver:  Solving for k, Initial residual = 0.000985813, Final residual = 3.31473e-05, No Iterations 1
ExecutionTime = 28.0932 s  ClockTime = 29 s

volFieldValue Uavg_propeller write:
    volAverage(propeller) of U = (-7.6565e-05 0.00392498 -237.291)

surfaceFieldValue phi_farField write:
    orientedSum(farField) of phi = 92.4046

surfaceFieldValue phi_top write:
    orientedSum(top) of phi = -92.3613

Time = 292s

--> FOAM Warning : 
    From function void Foam::Function1s::Table<Type>::checkX(Foam::scalar) const [with Type = Foam::Vector2D<double>; Foam::scalar = double]
    in file lnInclude/Table.C at line 107
    "value (18.2531) overflow"

--> FOAM Warning : 
    From function void Foam::Function1s::Table<Type>::checkX(Foam::scalar) const [with Type = Foam::Vector2D<double>; Foam::scalar = double]
    in file lnInclude/Table.C at line 107
    "value (18.2512) overflow"

smoothSolver:  Solving for Ux, Initial residual = 0.000139769, Final residual = 5.71927e-06, No Iterations 1
smoothSolver:  Solving for Uy, Initial residual = 0.000162069, Final residual = 6.43173e-06, No Iterations 1
smoothSolver:  Solving for Uz, Initial residual = 5.90299e-05, Final residual = 1.71813e-06, No Iterations 1
DICPCG:  Solving for p, Initial residual = 0.00138194, Final residual = 5.97085e-05, No Iterations 7
time step continuity errors : sum local = 0.0412314, global = 0.00672872, cumulative = 5.18731
smoothSolver:  Solving for omega, Initial residual = 4.24015e-05, Final residual = 2.00679e-06, No Iterations 1
smoothSolver:  Solving for k, Initial residual = 0.000959565, Final residual = 3.29213e-05, No Iterations 1
ExecutionTime = 28.1776 s  ClockTime = 29 s

volFieldValue Uavg_propeller write:
    volAverage(propeller) of U = (7.5307e-05 0.00369879 -237.289)

surfaceFieldValue phi_farField write:
    orientedSum(farField) of phi = 92.4025

surfaceFieldValue phi_top write:
    orientedSum(top) of phi = -92.3702

Time = 293s

--> FOAM Warning : 
    From function void Foam::Function1s::Table<Type>::checkX(Foam::scalar) const [with Type = Foam::Vector2D<double>; Foam::scalar = double]
    in file lnInclude/Table.C at line 107
    "value (18.253) overflow"

--> FOAM Warning : 
    From function void Foam::Function1s::Table<Type>::checkX(Foam::scalar) const [with Type = Foam::Vector2D<double>; Foam::scalar = double]
    in file lnInclude/Table.C at line 107
    "value (18.2511) overflow"

smoothSolver:  Solving for Ux, Initial residual = 0.000138176, Final residual = 5.68802e-06, No Iterations 1
smoothSolver:  Solving for Uy, Initial residual = 0.00016006, Final residual = 6.31592e-06, No Iterations 1
smoothSolver:  Solving for Uz, Initial residual = 5.83564e-05, Final residual = 1.69534e-06, No Iterations 1
DICPCG:  Solving for p, Initial residual = 0.00136316, Final residual = 6.15497e-05, No Iterations 7
time step continuity errors : sum local = 0.0422118, global = 0.0046782, cumulative = 5.19199
smoothSolver:  Solving for omega, Initial residual = 4.18414e-05, Final residual = 1.95095e-06, No Iterations 1
smoothSolver:  Solving for k, Initial residual = 0.000947644, Final residual = 3.3131e-05, No Iterations 1
ExecutionTime = 28.2608 s  ClockTime = 29 s

volFieldValue Uavg_propeller write:
    volAverage(propeller) of U = (0.000224505 0.00349238 -237.288)

surfaceFieldValue phi_farField write:
    orientedSum(farField) of phi = 92.3992

surfaceFieldValue phi_top write:
    orientedSum(top) of phi = -92.3767

Time = 294s

--> FOAM Warning : 
    From function void Foam::Function1s::Table<Type>::checkX(Foam::scalar) const [with Type = Foam::Vector2D<double>; Foam::scalar = double]
    in file lnInclude/Table.C at line 107
    "value (18.2529) overflow"

--> FOAM Warning : 
    From function void Foam::Function1s::Table<Type>::checkX(Foam::scalar) const [with Type = Foam::Vector2D<double>; Foam::scalar = double]
    in file lnInclude/Table.C at line 107
    "value (18.251) overflow"

smoothSolver:  Solving for Ux, Initial residual = 0.000136818, Final residual = 5.6699e-06, No Iterations 1
smoothSolver:  Solving for Uy, Initial residual = 0.000158234, Final residual = 6.24497e-06, No Iterations 1
smoothSolver:  Solving for Uz, Initial residual = 5.76102e-05, Final residual = 1.65199e-06, No Iterations 1
DICPCG:  Solving for p, Initial residual = 0.00133754, Final residual = 6.30281e-05, No Iterations 7
time step continuity errors : sum local = 0.043389, global = 0.00305624, cumulative = 5.19504
smoothSolver:  Solving for omega, Initial residual = 4.12132e-05, Final residual = 1.88787e-06, No Iterations 1
smoothSolver:  Solving for k, Initial residual = 0.000941033, Final residual = 3.34695e-05, No Iterations 1
ExecutionTime = 28.3469 s  ClockTime = 29 s

volFieldValue Uavg_propeller write:
    volAverage(propeller) of U = (0.000364961 0.0033101 -237.286)

surfaceFieldValue phi_farField write:
    orientedSum(farField) of phi = 92.3976

surfaceFieldValue phi_top write:
    orientedSum(top) of phi = -92.383

Time = 295s

--> FOAM Warning : 
    From function void Foam::Function1s::Table<Type>::checkX(Foam::scalar) const [with Type = Foam::Vector2D<double>; Foam::scalar = double]
    in file lnInclude/Table.C at line 107
    "value (18.2528) overflow"

--> FOAM Warning : 
    From function void Foam::Function1s::Table<Type>::checkX(Foam::scalar) const [with Type = Foam::Vector2D<double>; Foam::scalar = double]
    in file lnInclude/Table.C at line 107
    "value (18.2508) overflow"

smoothSolver:  Solving for Ux, Initial residual = 0.000135619, Final residual = 5.64905e-06, No Iterations 1
smoothSolver:  Solving for Uy, Initial residual = 0.000156702, Final residual = 6.21533e-06, No Iterations 1
smoothSolver:  Solving for Uz, Initial residual = 5.67433e-05, Final residual = 1.60274e-06, No Iterations 1
DICPCG:  Solving for p, Initial residual = 0.00130651, Final residual = 6.24034e-05, No Iterations 7
time step continuity errors : sum local = 0.0433724, global = 0.00220004, cumulative = 5.19724
smoothSolver:  Solving for omega, Initial residual = 4.0483e-05, Final residual = 1.8217e-06, No Iterations 1
smoothSolver:  Solving for k, Initial residual = 0.000933707, Final residual = 3.36612e-05, No Iterations 1
ExecutionTime = 28.4327 s  ClockTime = 29 s

volFieldValue Uavg_propeller write:
    volAverage(propeller) of U = (0.000488143 0.00315511 -237.284)

surfaceFieldValue phi_farField write:
    orientedSum(farField) of phi = 92.3972

surfaceFieldValue phi_top write:
    orientedSum(top) of phi = -92.3866

Time = 296s

--> FOAM Warning : 
    From function void Foam::Function1s::Table<Type>::checkX(Foam::scalar) const [with Type = Foam::Vector2D<double>; Foam::scalar = double]
    in file lnInclude/Table.C at line 107
    "value (18.2526) overflow"

--> FOAM Warning : 
    From function void Foam::Function1s::Table<Type>::checkX(Foam::scalar) const [with Type = Foam::Vector2D<double>; Foam::scalar = double]
    in file lnInclude/Table.C at line 107
    "value (18.2507) overflow"

smoothSolver:  Solving for Ux, Initial residual = 0.000134653, Final residual = 5.61055e-06, No Iterations 1
smoothSolver:  Solving for Uy, Initial residual = 0.000155384, Final residual = 6.17616e-06, No Iterations 1
smoothSolver:  Solving for Uz, Initial residual = 5.59359e-05, Final residual = 1.55148e-06, No Iterations 1
DICPCG:  Solving for p, Initial residual = 0.00126035, Final residual = 6.00804e-05, No Iterations 7
time step continuity errors : sum local = 0.0430579, global = 0.00190858, cumulative = 5.19915
smoothSolver:  Solving for omega, Initial residual = 3.97587e-05, Final residual = 1.75881e-06, No Iterations 1
smoothSolver:  Solving for k, Initial residual = 0.000927475, Final residual = 3.38596e-05, No Iterations 1
ExecutionTime = 28.523 s  ClockTime = 29 s

volFieldValue Uavg_propeller write:
    volAverage(propeller) of U = (0.000585534 0.00302809 -237.283)

surfaceFieldValue phi_farField write:
    orientedSum(farField) of phi = 92.397

surfaceFieldValue phi_top write:
    orientedSum(top) of phi = -92.3879

Time = 297s

--> FOAM Warning : 
    From function void Foam::Function1s::Table<Type>::checkX(Foam::scalar) const [with Type = Foam::Vector2D<double>; Foam::scalar = double]
    in file lnInclude/Table.C at line 107
    "value (18.2525) overflow"

--> FOAM Warning : 
    From function void Foam::Function1s::Table<Type>::checkX(Foam::scalar) const [with Type = Foam::Vector2D<double>; Foam::scalar = double]
    in file lnInclude/Table.C at line 107
    "value (18.2506) overflow"

smoothSolver:  Solving for Ux, Initial residual = 0.000133998, Final residual = 5.55912e-06, No Iterations 1
smoothSolver:  Solving for Uy, Initial residual = 0.000154311, Final residual = 6.12456e-06, No Iterations 1
smoothSolver:  Solving for Uz, Initial residual = 5.53807e-05, Final residual = 1.51266e-06, No Iterations 1
DICPCG:  Solving for p, Initial residual = 0.00125373, Final residual = 5.89589e-05, No Iterations 7
time step continuity errors : sum local = 0.042067, global = 0.00203673, cumulative = 5.20119
smoothSolver:  Solving for omega, Initial residual = 3.897e-05, Final residual = 1.69744e-06, No Iterations 1
smoothSolver:  Solving for k, Initial residual = 0.000920578, Final residual = 3.37438e-05, No Iterations 1
ExecutionTime = 28.6156 s  ClockTime = 29 s

volFieldValue Uavg_propeller write:
    volAverage(propeller) of U = (0.000651509 0.00292723 -237.281)

surfaceFieldValue phi_farField write:
    orientedSum(farField) of phi = 92.3963

surfaceFieldValue phi_top write:
    orientedSum(top) of phi = -92.3866

Time = 298s

--> FOAM Warning : 
    From function void Foam::Function1s::Table<Type>::checkX(Foam::scalar) const [with Type = Foam::Vector2D<double>; Foam::scalar = double]
    in file lnInclude/Table.C at line 107
    "value (18.2524) overflow"

--> FOAM Warning : 
    From function void Foam::Function1s::Table<Type>::checkX(Foam::scalar) const [with Type = Foam::Vector2D<double>; Foam::scalar = double]
    in file lnInclude/Table.C at line 107
    "value (18.2504) overflow"

smoothSolver:  Solving for Ux, Initial residual = 0.0001337, Final residual = 5.51202e-06, No Iterations 1
smoothSolver:  Solving for Uy, Initial residual = 0.000153507, Final residual = 6.05821e-06, No Iterations 1
smoothSolver:  Solving for Uz, Initial residual = 5.50695e-05, Final residual = 1.49026e-06, No Iterations 1
DICPCG:  Solving for p, Initial residual = 0.00124121, Final residual = 5.71748e-05, No Iterations 7
time step continuity errors : sum local = 0.0408445, global = 0.00250204, cumulative = 5.20369
smoothSolver:  Solving for omega, Initial residual = 3.81657e-05, Final residual = 1.64247e-06, No Iterations 1
smoothSolver:  Solving for k, Initial residual = 0.000914512, Final residual = 3.33713e-05, No Iterations 1
ExecutionTime = 28.711 s  ClockTime = 29 s

volFieldValue Uavg_propeller write:
    volAverage(propeller) of U = (0.000684758 0.00284898 -237.279)

surfaceFieldValue phi_farField write:
    orientedSum(farField) of phi = 92.3953

surfaceFieldValue phi_top write:
    orientedSum(top) of phi = -92.3833

Time = 299s

--> FOAM Warning : 
    From function void Foam::Function1s::Table<Type>::checkX(Foam::scalar) const [with Type = Foam::Vector2D<double>; Foam::scalar = double]
    in file lnInclude/Table.C at line 107
    "value (18.2522) overflow"

--> FOAM Warning : 
    From function void Foam::Function1s::Table<Type>::checkX(Foam::scalar) const [with Type = Foam::Vector2D<double>; Foam::scalar = double]
    in file lnInclude/Table.C at line 107
    "value (18.2503) overflow"

smoothSolver:  Solving for Ux, Initial residual = 0.000133482, Final residual = 5.47719e-06, No Iterations 1
smoothSolver:  Solving for Uy, Initial residual = 0.000152887, Final residual = 5.9803e-06, No Iterations 1
smoothSolver:  Solving for Uz, Initial residual = 5.49294e-05, Final residual = 1.47847e-06, No Iterations 1
DICPCG:  Solving for p, Initial residual = 0.00122339, Final residual = 5.39451e-05, No Iterations 7
time step continuity errors : sum local = 0.038924, global = 0.00320912, cumulative = 5.2069
smoothSolver:  Solving for omega, Initial residual = 3.73304e-05, Final residual = 1.59876e-06, No Iterations 1
smoothSolver:  Solving for k, Initial residual = 0.000908183, Final residual = 3.30048e-05, No Iterations 1
ExecutionTime = 28.8022 s  ClockTime = 29 s

volFieldValue Uavg_propeller write:
    volAverage(propeller) of U = (0.000687738 0.00279078 -237.277)

surfaceFieldValue phi_farField write:
    orientedSum(farField) of phi = 92.3927

surfaceFieldValue phi_top write:
    orientedSum(top) of phi = -92.3773

Time = 300s

--> FOAM Warning : 
    From function void Foam::Function1s::Table<Type>::checkX(Foam::scalar) const [with Type = Foam::Vector2D<double>; Foam::scalar = double]
    in file lnInclude/Table.C at line 107
    "value (18.2521) overflow"

--> FOAM Warning : 
    From function void Foam::Function1s::Table<Type>::checkX(Foam::scalar) const [with Type = Foam::Vector2D<double>; Foam::scalar = double]
    in file lnInclude/Table.C at line 107
    "value (18.2502) overflow"

smoothSolver:  Solving for Ux, Initial residual = 0.00013351, Final residual = 5.44184e-06, No Iterations 1
smoothSolver:  Solving for Uy, Initial residual = 0.000152686, Final residual = 5.90629e-06, No Iterations 1
smoothSolver:  Solving for Uz, Initial residual = 5.48932e-05, Final residual = 1.47214e-06, No Iterations 1
DICPCG:  Solving for p, Initial residual = 0.00121989, Final residual = 5.18226e-05, No Iterations 7
time step continuity errors : sum local = 0.0373709, global = 0.00381954, cumulative = 5.21072
smoothSolver:  Solving for omega, Initial residual = 3.67008e-05, Final residual = 1.57763e-06, No Iterations 1
smoothSolver:  Solving for k, Initial residual = 0.000904855, Final residual = 3.27478e-05, No Iterations 1
ExecutionTime = 29.1164 s  ClockTime = 30 s

volFieldValue Uavg_propeller write:
    volAverage(propeller) of U = (0.000665291 0.00275349 -237.276)

surfaceFieldValue phi_farField write:
    orientedSum(farField) of phi = 92.3881

surfaceFieldValue phi_top write:
    orientedSum(top) of phi = -92.3698

End

