/*---------------------------------------------------------------------------*\
  =========                 |
  \\      /  F ield         | OpenFOAM: The Open Source CFD Toolbox
   \\    /   O peration     | Website:  https://openfoam.org
    \\  /    A nd           | Version:  13
     \\/     M anipulation  |
\*---------------------------------------------------------------------------*/
Build  : 13-cde978a97c93
Exec   : foamRun
Date   : Mar 05 2026
Time   : 11:57:04
Host   : "JOO-DESKTOP"
PID    : 47107
I/O    : uncollated
Case   : /home/joo/OpenFOAM/joo-13/run/trackB_propellerIGE_v13/cases/sweep_baselineHover/hR0p35
nProcs : 1
sigFpe : Enabling floating point exception trapping (FOAM_SIGFPE).
fileModificationChecking : Monitoring run-time modified files using timeStampMaster (fileModificationSkew 10)
allowSystemOperations : Allowing user-supplied system call operations

// * * * * * * * * * * * * * * * * * * * * * * * * * * * * * * * * * * * * * //
Create time

Create mesh for time = 0

Selecting solver incompressibleFluid
Selecting viscosity model constant
Selecting turbulence model type RAS
    Selecting RAS turbulence model kOmegaSST
No MRF models present

Selecting patchDistMethod meshWave
Creating fvModels from "constant/fvModels"

Selecting finite volume model type propellerDisk
    Name: diskSource

SIMPLE: Convergence criteria found
        p: tolerance 0.0001
        U: tolerance 1e-05
        k: tolerance 1e-05
        omega: tolerance 1e-05


SIMPLE: Operating solver in steady-state mode with 1 outer corrector
SIMPLE: Operating solver in SIMPLE mode



Starting time loop

Reading set description:
    line

volFieldValue Uavg_propeller read:
    number of cells = 104
    volume = 0.0126953
    operation = volAverage

surfaceFieldValue phi_farField read:
    number of faces = 24576
    area = 48
    operation = orientedSum

surfaceFieldValue phi_top read:
    number of faces = 4096
    area = 16
    operation = orientedSum

volFieldValue Uavg_propeller write:
    volAverage(propeller) of U = (0 0 -0.01)

surfaceFieldValue phi_farField write:
    orientedSum(farField) of phi = 0

surfaceFieldValue phi_top write:
    orientedSum(top) of phi = 0

Time = 1s

--> FOAM Warning : 
    From function void Foam::Function1s::Table<Type>::checkX(Foam::scalar) const [with Type = Foam::Vector2D<double>; Foam::scalar = double]
    in file lnInclude/Table.C at line 107
    "value (-97.489) underflow"

smoothSolver:  Solving for Ux, Initial residual = 1, Final residual = 0.0248963, No Iterations 1
smoothSolver:  Solving for Uy, Initial residual = 1, Final residual = 0.0248963, No Iterations 1
smoothSolver:  Solving for Uz, Initial residual = 1, Final residual = 0.0253133, No Iterations 1
DICPCG:  Solving for p, Initial residual = 1, Final residual = 0.0472086, No Iterations 9
time step continuity errors : sum local = 0.037802, global = -0.0024018, cumulative = -0.0024018
smoothSolver:  Solving for omega, Initial residual = 0.293981, Final residual = 0.0162921, No Iterations 1
smoothSolver:  Solving for k, Initial residual = 1, Final residual = 0.0275692, No Iterations 1
ExecutionTime = 3.94212 s  ClockTime = 4 s

volFieldValue Uavg_propeller write:
    volAverage(propeller) of U = (-0.00131872 -0.00106739 -81.5893)

surfaceFieldValue phi_farField write:
    orientedSum(farField) of phi = 0.0447137

surfaceFieldValue phi_top write:
    orientedSum(top) of phi = -0.16

Time = 2s

--> FOAM Warning : 
    From function void Foam::Function1s::Table<Type>::checkX(Foam::scalar) const [with Type = Foam::Vector2D<double>; Foam::scalar = double]
    in file lnInclude/Table.C at line 107
    "value (27.1964) overflow"

--> FOAM Warning : 
    From function void Foam::Function1s::Table<Type>::checkX(Foam::scalar) const [with Type = Foam::Vector2D<double>; Foam::scalar = double]
    in file lnInclude/Table.C at line 107
    "value (27.1952) overflow"

smoothSolver:  Solving for Ux, Initial residual = 0.241978, Final residual = 0.0146342, No Iterations 1
smoothSolver:  Solving for Uy, Initial residual = 0.24201, Final residual = 0.0137867, No Iterations 1
smoothSolver:  Solving for Uz, Initial residual = 0.249757, Final residual = 0.0152029, No Iterations 1
DICPCG:  Solving for p, Initial residual = 0.990141, Final residual = 0.0457626, No Iterations 24
time step continuity errors : sum local = 0.0343829, global = 0.00254088, cumulative = 0.000139079
smoothSolver:  Solving for omega, Initial residual = 0.0989804, Final residual = 0.00518831, No Iterations 1
smoothSolver:  Solving for k, Initial residual = 0.0941401, Final residual = 0.00400585, No Iterations 1
ExecutionTime = 4.70912 s  ClockTime = 5 s

volFieldValue Uavg_propeller write:
    volAverage(propeller) of U = (0.034018 -0.00510292 -55.8064)

surfaceFieldValue phi_farField write:
    orientedSum(farField) of phi = 0.28206

surfaceFieldValue phi_top write:
    orientedSum(top) of phi = -0.160098

Time = 3s

--> FOAM Warning : 
    From function void Foam::Function1s::Table<Type>::checkX(Foam::scalar) const [with Type = Foam::Vector2D<double>; Foam::scalar = double]
    in file lnInclude/Table.C at line 107
    "value (18.6021) overflow"

--> FOAM Warning : 
    From function void Foam::Function1s::Table<Type>::checkX(Foam::scalar) const [with Type = Foam::Vector2D<double>; Foam::scalar = double]
    in file lnInclude/Table.C at line 107
    "value (18.6003) overflow"

smoothSolver:  Solving for Ux, Initial residual = 0.220444, Final residual = 0.0134817, No Iterations 1
smoothSolver:  Solving for Uy, Initial residual = 0.220035, Final residual = 0.0121575, No Iterations 1
smoothSolver:  Solving for Uz, Initial residual = 0.245861, Final residual = 0.0146595, No Iterations 1
DICPCG:  Solving for p, Initial residual = 0.0170063, Final residual = 0.000848662, No Iterations 10
time step continuity errors : sum local = 0.0308572, global = -0.000514254, cumulative = -0.000375175
smoothSolver:  Solving for omega, Initial residual = 0.0825215, Final residual = 0.004754, No Iterations 1
smoothSolver:  Solving for k, Initial residual = 0.0784686, Final residual = 0.00352752, No Iterations 1
ExecutionTime = 5.42328 s  ClockTime = 6 s

volFieldValue Uavg_propeller write:
    volAverage(propeller) of U = (0.031656 -0.02266 -29.7516)

surfaceFieldValue phi_farField write:
    orientedSum(farField) of phi = 0.136756

surfaceFieldValue phi_top write:
    orientedSum(top) of phi = -0.16144

Time = 4s

--> FOAM Warning : 
    From function void Foam::Function1s::Table<Type>::checkX(Foam::scalar) const [with Type = Foam::Vector2D<double>; Foam::scalar = double]
    in file lnInclude/Table.C at line 107
    "value (9.9172) overflow"

--> FOAM Warning : 
    From function void Foam::Function1s::Table<Type>::checkX(Foam::scalar) const [with Type = Foam::Vector2D<double>; Foam::scalar = double]
    in file lnInclude/Table.C at line 107
    "value (9.91366) overflow"

smoothSolver:  Solving for Ux, Initial residual = 0.214062, Final residual = 0.0127612, No Iterations 1
smoothSolver:  Solving for Uy, Initial residual = 0.213251, Final residual = 0.0132531, No Iterations 1
smoothSolver:  Solving for Uz, Initial residual = 0.396686, Final residual = 0.0302419, No Iterations 1
DICPCG:  Solving for p, Initial residual = 0.0087505, Final residual = 0.000420172, No Iterations 21
time step continuity errors : sum local = 0.0217695, global = 0.00796051, cumulative = 0.00758534
smoothSolver:  Solving for omega, Initial residual = 0.0702845, Final residual = 0.00406202, No Iterations 1
smoothSolver:  Solving for k, Initial residual = 0.0623999, Final residual = 0.00317264, No Iterations 1
ExecutionTime = 6.15432 s  ClockTime = 7 s

volFieldValue Uavg_propeller write:
    volAverage(propeller) of U = (0.0336367 -0.0378663 -7.07376)

surfaceFieldValue phi_farField write:
    orientedSum(farField) of phi = 0.571071

surfaceFieldValue phi_top write:
    orientedSum(top) of phi = -0.188966

Time = 5s

--> FOAM Warning : 
    From function void Foam::Function1s::Table<Type>::checkX(Foam::scalar) const [with Type = Foam::Vector2D<double>; Foam::scalar = double]
    in file lnInclude/Table.C at line 107
    "value (2.35792) overflow"

--> FOAM Warning : 
    From function void Foam::Function1s::Table<Type>::checkX(Foam::scalar) const [with Type = Foam::Vector2D<double>; Foam::scalar = double]
    in file lnInclude/Table.C at line 107
    "value (2.34303) overflow"

smoothSolver:  Solving for Ux, Initial residual = 0.161035, Final residual = 0.00929695, No Iterations 1
smoothSolver:  Solving for Uy, Initial residual = 0.160469, Final residual = 0.00977329, No Iterations 1
smoothSolver:  Solving for Uz, Initial residual = 0.528715, Final residual = 0.0373667, No Iterations 1
DICPCG:  Solving for p, Initial residual = 0.0211177, Final residual = 0.000994159, No Iterations 24
time step continuity errors : sum local = 0.0313046, global = 0.0153969, cumulative = 0.0229823
smoothSolver:  Solving for omega, Initial residual = 0.0609075, Final residual = 0.00338265, No Iterations 1
smoothSolver:  Solving for k, Initial residual = 0.0559222, Final residual = 0.00292743, No Iterations 1
ExecutionTime = 6.96662 s  ClockTime = 7 s

volFieldValue Uavg_propeller write:
    volAverage(propeller) of U = (0.0457962 -0.0539013 7.39733)

surfaceFieldValue phi_farField write:
    orientedSum(farField) of phi = 0.955868

surfaceFieldValue phi_top write:
    orientedSum(top) of phi = -0.216815

Time = 6s

--> FOAM Warning : 
    From function void Foam::Function1s::Table<Type>::checkX(Foam::scalar) const [with Type = Foam::Vector2D<double>; Foam::scalar = double]
    in file lnInclude/Table.C at line 107
    "value (2.46578) overflow"

--> FOAM Warning : 
    From function void Foam::Function1s::Table<Type>::checkX(Foam::scalar) const [with Type = Foam::Vector2D<double>; Foam::scalar = double]
    in file lnInclude/Table.C at line 107
    "value (2.45154) overflow"

smoothSolver:  Solving for Ux, Initial residual = 0.107285, Final residual = 0.00638942, No Iterations 1
smoothSolver:  Solving for Uy, Initial residual = 0.10709, Final residual = 0.00654585, No Iterations 1
smoothSolver:  Solving for Uz, Initial residual = 0.332043, Final residual = 0.0218316, No Iterations 1
DICPCG:  Solving for p, Initial residual = 0.272723, Final residual = 0.0129724, No Iterations 19
time step continuity errors : sum local = 0.0418775, global = 0.0175285, cumulative = 0.0405108
smoothSolver:  Solving for omega, Initial residual = 0.0501333, Final residual = 0.00277644, No Iterations 1
smoothSolver:  Solving for k, Initial residual = 0.051011, Final residual = 0.0027286, No Iterations 1
ExecutionTime = 7.71045 s  ClockTime = 8 s

volFieldValue Uavg_propeller write:
    volAverage(propeller) of U = (0.0763362 -0.0572831 11.0019)

surfaceFieldValue phi_farField write:
    orientedSum(farField) of phi = 1.07094

surfaceFieldValue phi_top write:
    orientedSum(top) of phi = -0.229576

Time = 7s

--> FOAM Warning : 
    From function void Foam::Function1s::Table<Type>::checkX(Foam::scalar) const [with Type = Foam::Vector2D<double>; Foam::scalar = double]
    in file lnInclude/Table.C at line 107
    "value (3.6673) overflow"

--> FOAM Warning : 
    From function void Foam::Function1s::Table<Type>::checkX(Foam::scalar) const [with Type = Foam::Vector2D<double>; Foam::scalar = double]
    in file lnInclude/Table.C at line 107
    "value (3.65773) overflow"

smoothSolver:  Solving for Ux, Initial residual = 0.0901267, Final residual = 0.00552598, No Iterations 1
smoothSolver:  Solving for Uy, Initial residual = 0.0901335, Final residual = 0.0055116, No Iterations 1
smoothSolver:  Solving for Uz, Initial residual = 0.170508, Final residual = 0.00955389, No Iterations 1
DICPCG:  Solving for p, Initial residual = 0.0336659, Final residual = 0.00168015, No Iterations 15
time step continuity errors : sum local = 0.0445473, global = 0.0183668, cumulative = 0.0588776
smoothSolver:  Solving for omega, Initial residual = 0.0440792, Final residual = 0.00238753, No Iterations 1
smoothSolver:  Solving for k, Initial residual = 0.0530371, Final residual = 0.00284716, No Iterations 1
ExecutionTime = 8.43252 s  ClockTime = 9 s

volFieldValue Uavg_propeller write:
    volAverage(propeller) of U = (0.0824824 -0.0617864 6.3763)

surfaceFieldValue phi_farField write:
    orientedSum(farField) of phi = 1.13451

surfaceFieldValue phi_top write:
    orientedSum(top) of phi = -0.252899

Time = 8s

--> FOAM Warning : 
    From function void Foam::Function1s::Table<Type>::checkX(Foam::scalar) const [with Type = Foam::Vector2D<double>; Foam::scalar = double]
    in file lnInclude/Table.C at line 107
    "value (2.12543) overflow"

--> FOAM Warning : 
    From function void Foam::Function1s::Table<Type>::checkX(Foam::scalar) const [with Type = Foam::Vector2D<double>; Foam::scalar = double]
    in file lnInclude/Table.C at line 107
    "value (2.10891) overflow"

smoothSolver:  Solving for Ux, Initial residual = 0.100924, Final residual = 0.00562681, No Iterations 1
smoothSolver:  Solving for Uy, Initial residual = 0.101373, Final residual = 0.00589997, No Iterations 1
smoothSolver:  Solving for Uz, Initial residual = 0.15906, Final residual = 0.00943196, No Iterations 1
DICPCG:  Solving for p, Initial residual = 0.0160723, Final residual = 0.000796051, No Iterations 20
time step continuity errors : sum local = 0.0361223, global = 0.0233376, cumulative = 0.0822152
smoothSolver:  Solving for omega, Initial residual = 0.0409819, Final residual = 0.00223202, No Iterations 1
smoothSolver:  Solving for k, Initial residual = 0.0549099, Final residual = 0.0029512, No Iterations 1
ExecutionTime = 9.18121 s  ClockTime = 10 s

volFieldValue Uavg_propeller write:
    volAverage(propeller) of U = (0.0444459 -0.0584756 -0.152514)

surfaceFieldValue phi_farField write:
    orientedSum(farField) of phi = 1.41493

surfaceFieldValue phi_top write:
    orientedSum(top) of phi = -0.294724

Time = 9s

--> FOAM Warning : 
    From function void Foam::Function1s::Table<Type>::checkX(Foam::scalar) const [with Type = Foam::Vector2D<double>; Foam::scalar = double]
    in file lnInclude/Table.C at line 107
    "value (-6.34151) underflow"

smoothSolver:  Solving for Ux, Initial residual = 0.106976, Final residual = 0.00560222, No Iterations 1
smoothSolver:  Solving for Uy, Initial residual = 0.10728, Final residual = 0.00591053, No Iterations 1
smoothSolver:  Solving for Uz, Initial residual = 0.225769, Final residual = 0.0151589, No Iterations 1
DICPCG:  Solving for p, Initial residual = 0.0100596, Final residual = 0.000476483, No Iterations 25
time step continuity errors : sum local = 0.0229383, global = 0.0072594, cumulative = 0.0894746
smoothSolver:  Solving for omega, Initial residual = 0.0394285, Final residual = 0.00219918, No Iterations 1
smoothSolver:  Solving for k, Initial residual = 0.0585136, Final residual = 0.00314395, No Iterations 1
ExecutionTime = 9.99498 s  ClockTime = 10 s

volFieldValue Uavg_propeller write:
    volAverage(propeller) of U = (0.111884 0.0590602 -3.9713)

surfaceFieldValue phi_farField write:
    orientedSum(farField) of phi = 0.706997

surfaceFieldValue phi_top write:
    orientedSum(top) of phi = -0.358546

Time = 10s

--> FOAM Warning : 
    From function void Foam::Function1s::Table<Type>::checkX(Foam::scalar) const [with Type = Foam::Vector2D<double>; Foam::scalar = double]
    in file lnInclude/Table.C at line 107
    "value (1.32377) overflow"

--> FOAM Warning : 
    From function void Foam::Function1s::Table<Type>::checkX(Foam::scalar) const [with Type = Foam::Vector2D<double>; Foam::scalar = double]
    in file lnInclude/Table.C at line 107
    "value (1.29724) overflow"

smoothSolver:  Solving for Ux, Initial residual = 0.106294, Final residual = 0.00538071, No Iterations 1
smoothSolver:  Solving for Uy, Initial residual = 0.106861, Final residual = 0.00565826, No Iterations 1
smoothSolver:  Solving for Uz, Initial residual = 0.249023, Final residual = 0.0159392, No Iterations 1
DICPCG:  Solving for p, Initial residual = 0.0127951, Final residual = 0.000624015, No Iterations 21
time step continuity errors : sum local = 0.0244186, global = 0.0132078, cumulative = 0.102682
smoothSolver:  Solving for omega, Initial residual = 0.0395024, Final residual = 0.00215068, No Iterations 1
smoothSolver:  Solving for k, Initial residual = 0.0610788, Final residual = 0.00328374, No Iterations 1
ExecutionTime = 10.7861 s  ClockTime = 11 s

volFieldValue Uavg_propeller write:
    volAverage(propeller) of U = (0.0943539 0.0831784 -4.89082)

surfaceFieldValue phi_farField write:
    orientedSum(farField) of phi = 1.02979

surfaceFieldValue phi_top write:
    orientedSum(top) of phi = -0.395819

Time = 11s

--> FOAM Warning : 
    From function void Foam::Function1s::Table<Type>::checkX(Foam::scalar) const [with Type = Foam::Vector2D<double>; Foam::scalar = double]
    in file lnInclude/Table.C at line 107
    "value (1.63027) overflow"

--> FOAM Warning : 
    From function void Foam::Function1s::Table<Type>::checkX(Foam::scalar) const [with Type = Foam::Vector2D<double>; Foam::scalar = double]
    in file lnInclude/Table.C at line 107
    "value (1.60873) overflow"

smoothSolver:  Solving for Ux, Initial residual = 0.100589, Final residual = 0.0050199, No Iterations 1
smoothSolver:  Solving for Uy, Initial residual = 0.101277, Final residual = 0.00521083, No Iterations 1
smoothSolver:  Solving for Uz, Initial residual = 0.202026, Final residual = 0.0117695, No Iterations 1
DICPCG:  Solving for p, Initial residual = 0.0210015, Final residual = 0.00100446, No Iterations 18
time step continuity errors : sum local = 0.0314763, global = 0.010947, cumulative = 0.113629
smoothSolver:  Solving for omega, Initial residual = 0.0406848, Final residual = 0.00214524, No Iterations 1
smoothSolver:  Solving for k, Initial residual = 0.0635583, Final residual = 0.00341008, No Iterations 1
ExecutionTime = 11.5113 s  ClockTime = 12 s

volFieldValue Uavg_propeller write:
    volAverage(propeller) of U = (0.0429329 0.143421 -3.86066)

surfaceFieldValue phi_farField write:
    orientedSum(farField) of phi = 0.977681

surfaceFieldValue phi_top write:
    orientedSum(top) of phi = -0.452226

Time = 12s

--> FOAM Warning : 
    From function void Foam::Function1s::Table<Type>::checkX(Foam::scalar) const [with Type = Foam::Vector2D<double>; Foam::scalar = double]
    in file lnInclude/Table.C at line 107
    "value (1.28689) overflow"

--> FOAM Warning : 
    From function void Foam::Function1s::Table<Type>::checkX(Foam::scalar) const [with Type = Foam::Vector2D<double>; Foam::scalar = double]
    in file lnInclude/Table.C at line 107
    "value (1.2596) overflow"

smoothSolver:  Solving for Ux, Initial residual = 0.0950242, Final residual = 0.00473425, No Iterations 1
smoothSolver:  Solving for Uy, Initial residual = 0.0956984, Final residual = 0.00484232, No Iterations 1
smoothSolver:  Solving for Uz, Initial residual = 0.155039, Final residual = 0.00823621, No Iterations 1
DICPCG:  Solving for p, Initial residual = 0.0389214, Final residual = 0.00190076, No Iterations 15
time step continuity errors : sum local = 0.0379459, global = 0.00816986, cumulative = 0.121799
smoothSolver:  Solving for omega, Initial residual = 0.0403404, Final residual = 0.00211961, No Iterations 1
smoothSolver:  Solving for k, Initial residual = 0.0660443, Final residual = 0.00353424, No Iterations 1
ExecutionTime = 12.2452 s  ClockTime = 13 s

volFieldValue Uavg_propeller write:
    volAverage(propeller) of U = (-0.0400799 0.37401 -1.10945)

surfaceFieldValue phi_farField write:
    orientedSum(farField) of phi = 0.897969

surfaceFieldValue phi_top write:
    orientedSum(top) of phi = -0.505815

Time = 13s

smoothSolver:  Solving for Ux, Initial residual = 0.0900004, Final residual = 0.00453721, No Iterations 1
smoothSolver:  Solving for Uy, Initial residual = 0.0907956, Final residual = 0.00458688, No Iterations 1
smoothSolver:  Solving for Uz, Initial residual = 0.137713, Final residual = 0.00700637, No Iterations 1
DICPCG:  Solving for p, Initial residual = 0.0564508, Final residual = 0.00280581, No Iterations 11
time step continuity errors : sum local = 0.037447, global = 0.00528771, cumulative = 0.127087
smoothSolver:  Solving for omega, Initial residual = 0.0398449, Final residual = 0.00202052, No Iterations 1
smoothSolver:  Solving for k, Initial residual = 0.0680701, Final residual = 0.00363719, No Iterations 1
ExecutionTime = 12.9171 s  ClockTime = 13 s

volFieldValue Uavg_propeller write:
    volAverage(propeller) of U = (-0.00874881 0.446443 -0.647731)

surfaceFieldValue phi_farField write:
    orientedSum(farField) of phi = 0.806719

surfaceFieldValue phi_top write:
    orientedSum(top) of phi = -0.552909

Time = 14s

--> FOAM Warning : 
    From function void Foam::Function1s::Table<Type>::checkX(Foam::scalar) const [with Type = Foam::Vector2D<double>; Foam::scalar = double]
    in file lnInclude/Table.C at line 107
    "value (-1.11751) underflow"

smoothSolver:  Solving for Ux, Initial residual = 0.0871114, Final residual = 0.0044261, No Iterations 1
smoothSolver:  Solving for Uy, Initial residual = 0.087643, Final residual = 0.00440705, No Iterations 1
smoothSolver:  Solving for Uz, Initial residual = 0.135564, Final residual = 0.00803652, No Iterations 1
DICPCG:  Solving for p, Initial residual = 0.0629628, Final residual = 0.00288949, No Iterations 12
time step continuity errors : sum local = 0.0293222, global = 0.00229797, cumulative = 0.129385
smoothSolver:  Solving for omega, Initial residual = 0.0384861, Final residual = 0.00196985, No Iterations 1
smoothSolver:  Solving for k, Initial residual = 0.0703936, Final residual = 0.00375479, No Iterations 1
ExecutionTime = 13.6383 s  ClockTime = 14 s

volFieldValue Uavg_propeller write:
    volAverage(propeller) of U = (-0.060345 0.383638 0.335186)

surfaceFieldValue phi_farField write:
    orientedSum(farField) of phi = 0.721891

surfaceFieldValue phi_top write:
    orientedSum(top) of phi = -0.611588

Time = 15s

--> FOAM Warning : 
    From function void Foam::Function1s::Table<Type>::checkX(Foam::scalar) const [with Type = Foam::Vector2D<double>; Foam::scalar = double]
    in file lnInclude/Table.C at line 107
    "value (-2.76451) underflow"

smoothSolver:  Solving for Ux, Initial residual = 0.083491, Final residual = 0.00432351, No Iterations 1
smoothSolver:  Solving for Uy, Initial residual = 0.0841437, Final residual = 0.00427828, No Iterations 1
smoothSolver:  Solving for Uz, Initial residual = 0.144502, Final residual = 0.0091562, No Iterations 1
DICPCG:  Solving for p, Initial residual = 0.0703065, Final residual = 0.003306, No Iterations 15
time step continuity errors : sum local = 0.0270115, global = -0.0032607, cumulative = 0.126124
smoothSolver:  Solving for omega, Initial residual = 0.0371742, Final residual = 0.00193634, No Iterations 1
smoothSolver:  Solving for k, Initial residual = 0.0727976, Final residual = 0.00386728, No Iterations 1
ExecutionTime = 14.3749 s  ClockTime = 15 s

volFieldValue Uavg_propeller write:
    volAverage(propeller) of U = (-0.100565 0.32881 2.48643)

surfaceFieldValue phi_farField write:
    orientedSum(farField) of phi = 0.508231

surfaceFieldValue phi_top write:
    orientedSum(top) of phi = -0.664745

Time = 16s

--> FOAM Warning : 
    From function void Foam::Function1s::Table<Type>::checkX(Foam::scalar) const [with Type = Foam::Vector2D<double>; Foam::scalar = double]
    in file lnInclude/Table.C at line 107
    "value (0.828812) overflow"

smoothSolver:  Solving for Ux, Initial residual = 0.0798237, Final residual = 0.00420489, No Iterations 1
smoothSolver:  Solving for Uy, Initial residual = 0.0803604, Final residual = 0.0041655, No Iterations 1
smoothSolver:  Solving for Uz, Initial residual = 0.140907, Final residual = 0.00888635, No Iterations 1
DICPCG:  Solving for p, Initial residual = 0.0737287, Final residual = 0.00362862, No Iterations 18
time step continuity errors : sum local = 0.0273611, global = -0.00543233, cumulative = 0.120692
smoothSolver:  Solving for omega, Initial residual = 0.0363474, Final residual = 0.00189423, No Iterations 1
smoothSolver:  Solving for k, Initial residual = 0.0746822, Final residual = 0.00394744, No Iterations 1
ExecutionTime = 15.1388 s  ClockTime = 16 s

volFieldValue Uavg_propeller write:
    volAverage(propeller) of U = (-0.0250686 0.259611 4.74162)

surfaceFieldValue phi_farField write:
    orientedSum(farField) of phi = 0.411276

surfaceFieldValue phi_top write:
    orientedSum(top) of phi = -0.672027

Time = 17s

--> FOAM Warning : 
    From function void Foam::Function1s::Table<Type>::checkX(Foam::scalar) const [with Type = Foam::Vector2D<double>; Foam::scalar = double]
    in file lnInclude/Table.C at line 107
    "value (1.58054) overflow"

--> FOAM Warning : 
    From function void Foam::Function1s::Table<Type>::checkX(Foam::scalar) const [with Type = Foam::Vector2D<double>; Foam::scalar = double]
    in file lnInclude/Table.C at line 107
    "value (1.55832) overflow"

smoothSolver:  Solving for Ux, Initial residual = 0.0765284, Final residual = 0.004066, No Iterations 1
smoothSolver:  Solving for Uy, Initial residual = 0.0769038, Final residual = 0.00404475, No Iterations 1
smoothSolver:  Solving for Uz, Initial residual = 0.123991, Final residual = 0.00739018, No Iterations 1
DICPCG:  Solving for p, Initial residual = 0.0771352, Final residual = 0.00351798, No Iterations 18
time step continuity errors : sum local = 0.0282883, global = -0.00171227, cumulative = 0.11898
smoothSolver:  Solving for omega, Initial residual = 0.0365069, Final residual = 0.00188508, No Iterations 1
smoothSolver:  Solving for k, Initial residual = 0.0765105, Final residual = 0.00402603, No Iterations 1
ExecutionTime = 15.9232 s  ClockTime = 16 s

volFieldValue Uavg_propeller write:
    volAverage(propeller) of U = (0.0190748 0.218415 4.92017)

surfaceFieldValue phi_farField write:
    orientedSum(farField) of phi = 0.547223

surfaceFieldValue phi_top write:
    orientedSum(top) of phi = -0.629412

Time = 18s

--> FOAM Warning : 
    From function void Foam::Function1s::Table<Type>::checkX(Foam::scalar) const [with Type = Foam::Vector2D<double>; Foam::scalar = double]
    in file lnInclude/Table.C at line 107
    "value (1.64006) overflow"

--> FOAM Warning : 
    From function void Foam::Function1s::Table<Type>::checkX(Foam::scalar) const [with Type = Foam::Vector2D<double>; Foam::scalar = double]
    in file lnInclude/Table.C at line 107
    "value (1.61865) overflow"

smoothSolver:  Solving for Ux, Initial residual = 0.074251, Final residual = 0.00393671, No Iterations 1
smoothSolver:  Solving for Uy, Initial residual = 0.0746442, Final residual = 0.00393784, No Iterations 1
smoothSolver:  Solving for Uz, Initial residual = 0.106209, Final residual = 0.00580307, No Iterations 1
DICPCG:  Solving for p, Initial residual = 0.0738783, Final residual = 0.00359377, No Iterations 12
time step continuity errors : sum local = 0.03393, global = 0.00401046, cumulative = 0.12299
smoothSolver:  Solving for omega, Initial residual = 0.0365913, Final residual = 0.00188744, No Iterations 1
smoothSolver:  Solving for k, Initial residual = 0.0777412, Final residual = 0.00408302, No Iterations 1
ExecutionTime = 16.6361 s  ClockTime = 17 s

volFieldValue Uavg_propeller write:
    volAverage(propeller) of U = (0.0253782 0.288416 3.79645)

surfaceFieldValue phi_farField write:
    orientedSum(farField) of phi = 0.833172

surfaceFieldValue phi_top write:
    orientedSum(top) of phi = -0.640671

Time = 19s

--> FOAM Warning : 
    From function void Foam::Function1s::Table<Type>::checkX(Foam::scalar) const [with Type = Foam::Vector2D<double>; Foam::scalar = double]
    in file lnInclude/Table.C at line 107
    "value (1.26548) overflow"

--> FOAM Warning : 
    From function void Foam::Function1s::Table<Type>::checkX(Foam::scalar) const [with Type = Foam::Vector2D<double>; Foam::scalar = double]
    in file lnInclude/Table.C at line 107
    "value (1.23774) overflow"

smoothSolver:  Solving for Ux, Initial residual = 0.0740257, Final residual = 0.00391089, No Iterations 1
smoothSolver:  Solving for Uy, Initial residual = 0.0743773, Final residual = 0.00393765, No Iterations 1
smoothSolver:  Solving for Uz, Initial residual = 0.0945011, Final residual = 0.00506324, No Iterations 1
DICPCG:  Solving for p, Initial residual = 0.0693029, Final residual = 0.0033782, No Iterations 14
time step continuity errors : sum local = 0.0330141, global = 0.00901146, cumulative = 0.132001
smoothSolver:  Solving for omega, Initial residual = 0.0366664, Final residual = 0.00186556, No Iterations 1
smoothSolver:  Solving for k, Initial residual = 0.0793582, Final residual = 0.00415488, No Iterations 1
ExecutionTime = 17.3422 s  ClockTime = 18 s

volFieldValue Uavg_propeller write:
    volAverage(propeller) of U = (0.0193314 0.298821 2.34171)

surfaceFieldValue phi_farField write:
    orientedSum(farField) of phi = 0.938576

surfaceFieldValue phi_top write:
    orientedSum(top) of phi = -0.506026

Time = 20s

smoothSolver:  Solving for Ux, Initial residual = 0.0743713, Final residual = 0.0039656, No Iterations 1
smoothSolver:  Solving for Uy, Initial residual = 0.0747425, Final residual = 0.00399047, No Iterations 1
smoothSolver:  Solving for Uz, Initial residual = 0.0890797, Final residual = 0.00525686, No Iterations 1
DICPCG:  Solving for p, Initial residual = 0.0474199, Final residual = 0.00228683, No Iterations 15
time step continuity errors : sum local = 0.0283978, global = 0.0149659, cumulative = 0.146967
smoothSolver:  Solving for omega, Initial residual = 0.0362237, Final residual = 0.00182393, No Iterations 1
smoothSolver:  Solving for k, Initial residual = 0.0803165, Final residual = 0.00419986, No Iterations 1
ExecutionTime = 18.0515 s  ClockTime = 19 s

volFieldValue Uavg_propeller write:
    volAverage(propeller) of U = (0.0241701 0.23272 0.710016)

surfaceFieldValue phi_farField write:
    orientedSum(farField) of phi = 1.03756

surfaceFieldValue phi_top write:
    orientedSum(top) of phi = -0.319199

Time = 21s

--> FOAM Warning : 
    From function void Foam::Function1s::Table<Type>::checkX(Foam::scalar) const [with Type = Foam::Vector2D<double>; Foam::scalar = double]
    in file lnInclude/Table.C at line 107
    "value (-0.949754) underflow"

smoothSolver:  Solving for Ux, Initial residual = 0.073277, Final residual = 0.0039233, No Iterations 1
smoothSolver:  Solving for Uy, Initial residual = 0.073718, Final residual = 0.0039313, No Iterations 1
smoothSolver:  Solving for Uz, Initial residual = 0.0899069, Final residual = 0.00542239, No Iterations 1
DICPCG:  Solving for p, Initial residual = 0.0288706, Final residual = 0.00144046, No Iterations 18
time step continuity errors : sum local = 0.0260625, global = 0.0152678, cumulative = 0.162235
smoothSolver:  Solving for omega, Initial residual = 0.0353439, Final residual = 0.00177209, No Iterations 1
smoothSolver:  Solving for k, Initial residual = 0.0807721, Final residual = 0.00422033, No Iterations 1
ExecutionTime = 18.81 s  ClockTime = 19 s

volFieldValue Uavg_propeller write:
    volAverage(propeller) of U = (0.112725 0.239752 -1.03719)

surfaceFieldValue phi_farField write:
    orientedSum(farField) of phi = 0.909548

surfaceFieldValue phi_top write:
    orientedSum(top) of phi = -0.176694

Time = 22s

smoothSolver:  Solving for Ux, Initial residual = 0.0706627, Final residual = 0.00380256, No Iterations 1
smoothSolver:  Solving for Uy, Initial residual = 0.0709686, Final residual = 0.00379728, No Iterations 1
smoothSolver:  Solving for Uz, Initial residual = 0.0867497, Final residual = 0.00511174, No Iterations 1
DICPCG:  Solving for p, Initial residual = 0.0246833, Final residual = 0.00108137, No Iterations 18
time step continuity errors : sum local = 0.0221584, global = 0.0100795, cumulative = 0.172315
smoothSolver:  Solving for omega, Initial residual = 0.0344839, Final residual = 0.00172555, No Iterations 1
smoothSolver:  Solving for k, Initial residual = 0.0810374, Final residual = 0.00422842, No Iterations 1
ExecutionTime = 19.5456 s  ClockTime = 20 s

volFieldValue Uavg_propeller write:
    volAverage(propeller) of U = (0.198075 0.165157 -2.21904)

surfaceFieldValue phi_farField write:
    orientedSum(farField) of phi = 0.716854

surfaceFieldValue phi_top write:
    orientedSum(top) of phi = -0.233036

Time = 23s

smoothSolver:  Solving for Ux, Initial residual = 0.0675917, Final residual = 0.00364689, No Iterations 1
smoothSolver:  Solving for Uy, Initial residual = 0.0677498, Final residual = 0.00361646, No Iterations 1
smoothSolver:  Solving for Uz, Initial residual = 0.0792874, Final residual = 0.00456497, No Iterations 1
DICPCG:  Solving for p, Initial residual = 0.0287861, Final residual = 0.00127295, No Iterations 18
time step continuity errors : sum local = 0.0226829, global = 0.00370018, cumulative = 0.176015
smoothSolver:  Solving for omega, Initial residual = 0.0339325, Final residual = 0.00169122, No Iterations 1
smoothSolver:  Solving for k, Initial residual = 0.0814115, Final residual = 0.0042449, No Iterations 1
ExecutionTime = 20.2632 s  ClockTime = 21 s

volFieldValue Uavg_propeller write:
    volAverage(propeller) of U = (0.245967 0.124924 -2.43311)

surfaceFieldValue phi_farField write:
    orientedSum(farField) of phi = 0.409517

surfaceFieldValue phi_top write:
    orientedSum(top) of phi = -0.231909

Time = 24s

--> FOAM Warning : 
    From function void Foam::Function1s::Table<Type>::checkX(Foam::scalar) const [with Type = Foam::Vector2D<double>; Foam::scalar = double]
    in file lnInclude/Table.C at line 107
    "value (0.811037) overflow"

smoothSolver:  Solving for Ux, Initial residual = 0.0660199, Final residual = 0.0035604, No Iterations 1
smoothSolver:  Solving for Uy, Initial residual = 0.065995, Final residual = 0.00350941, No Iterations 1
smoothSolver:  Solving for Uz, Initial residual = 0.0747748, Final residual = 0.00428581, No Iterations 1
DICPCG:  Solving for p, Initial residual = 0.0317928, Final residual = 0.00154112, No Iterations 17
time step continuity errors : sum local = 0.0234876, global = -0.00231414, cumulative = 0.173701
smoothSolver:  Solving for omega, Initial residual = 0.0335557, Final residual = 0.00166406, No Iterations 1
smoothSolver:  Solving for k, Initial residual = 0.0819219, Final residual = 0.00427128, No Iterations 1
ExecutionTime = 21.0117 s  ClockTime = 21 s

volFieldValue Uavg_propeller write:
    volAverage(propeller) of U = (0.220059 0.128153 -1.89967)

surfaceFieldValue phi_farField write:
    orientedSum(farField) of phi = 0.185269

surfaceFieldValue phi_top write:
    orientedSum(top) of phi = -0.296348

Time = 25s

smoothSolver:  Solving for Ux, Initial residual = 0.0655072, Final residual = 0.00354099, No Iterations 1
smoothSolver:  Solving for Uy, Initial residual = 0.0657924, Final residual = 0.00350061, No Iterations 1
smoothSolver:  Solving for Uz, Initial residual = 0.0737903, Final residual = 0.00425255, No Iterations 1
DICPCG:  Solving for p, Initial residual = 0.0306307, Final residual = 0.00134952, No Iterations 24
time step continuity errors : sum local = 0.0193793, global = -0.00821009, cumulative = 0.165491
smoothSolver:  Solving for omega, Initial residual = 0.0332051, Final residual = 0.00164824, No Iterations 1
smoothSolver:  Solving for k, Initial residual = 0.0825506, Final residual = 0.00430663, No Iterations 1
ExecutionTime = 21.8518 s  ClockTime = 22 s

volFieldValue Uavg_propeller write:
    volAverage(propeller) of U = (0.184921 0.142414 -1.01676)

surfaceFieldValue phi_farField write:
    orientedSum(farField) of phi = 0.0660726

surfaceFieldValue phi_top write:
    orientedSum(top) of phi = -0.460157

Time = 26s

smoothSolver:  Solving for Ux, Initial residual = 0.0651099, Final residual = 0.00352309, No Iterations 1
smoothSolver:  Solving for Uy, Initial residual = 0.065511, Final residual = 0.0034832, No Iterations 1
smoothSolver:  Solving for Uz, Initial residual = 0.0747229, Final residual = 0.00433115, No Iterations 1
DICPCG:  Solving for p, Initial residual = 0.0460053, Final residual = 0.0019713, No Iterations 24
time step continuity errors : sum local = 0.0182287, global = -0.00342051, cumulative = 0.16207
smoothSolver:  Solving for omega, Initial residual = 0.0330782, Final residual = 0.00163826, No Iterations 1
smoothSolver:  Solving for k, Initial residual = 0.0837162, Final residual = 0.00436391, No Iterations 1
ExecutionTime = 22.6256 s  ClockTime = 23 s

volFieldValue Uavg_propeller write:
    volAverage(propeller) of U = (0.165045 0.15901 0.096531)

surfaceFieldValue phi_farField write:
    orientedSum(farField) of phi = 0.158434

surfaceFieldValue phi_top write:
    orientedSum(top) of phi = -0.322619

Time = 27s

--> FOAM Warning : 
    From function void Foam::Function1s::Table<Type>::checkX(Foam::scalar) const [with Type = Foam::Vector2D<double>; Foam::scalar = double]
    in file lnInclude/Table.C at line 107
    "value (-10.0674) underflow"

smoothSolver:  Solving for Ux, Initial residual = 0.0638263, Final residual = 0.00346978, No Iterations 1
smoothSolver:  Solving for Uy, Initial residual = 0.064325, Final residual = 0.00342623, No Iterations 1
smoothSolver:  Solving for Uz, Initial residual = 0.0747214, Final residual = 0.00434675, No Iterations 1
DICPCG:  Solving for p, Initial residual = 0.0448117, Final residual = 0.00220402, No Iterations 21
time step continuity errors : sum local = 0.0214232, global = -0.00606296, cumulative = 0.156007
smoothSolver:  Solving for omega, Initial residual = 0.0331003, Final residual = 0.00163899, No Iterations 1
smoothSolver:  Solving for k, Initial residual = 0.0844565, Final residual = 0.00440259, No Iterations 1
ExecutionTime = 23.4123 s  ClockTime = 24 s

volFieldValue Uavg_propeller write:
    volAverage(propeller) of U = (0.169342 0.157297 1.61664)

surfaceFieldValue phi_farField write:
    orientedSum(farField) of phi = 0.00422895

surfaceFieldValue phi_top write:
    orientedSum(top) of phi = -0.295251

Time = 28s

smoothSolver:  Solving for Ux, Initial residual = 0.0619009, Final residual = 0.00338266, No Iterations 1
smoothSolver:  Solving for Uy, Initial residual = 0.0623308, Final residual = 0.00333691, No Iterations 1
smoothSolver:  Solving for Uz, Initial residual = 0.0722752, Final residual = 0.00416731, No Iterations 1
DICPCG:  Solving for p, Initial residual = 0.0476768, Final residual = 0.00229394, No Iterations 20
time step continuity errors : sum local = 0.0209234, global = -0.0057093, cumulative = 0.150298
smoothSolver:  Solving for omega, Initial residual = 0.0333321, Final residual = 0.00164209, No Iterations 1
smoothSolver:  Solving for k, Initial residual = 0.0855218, Final residual = 0.00445595, No Iterations 1
ExecutionTime = 24.1473 s  ClockTime = 25 s

volFieldValue Uavg_propeller write:
    volAverage(propeller) of U = (0.189858 0.148617 2.6683)

surfaceFieldValue phi_farField write:
    orientedSum(farField) of phi = -0.0623762

surfaceFieldValue phi_top write:
    orientedSum(top) of phi = -0.21167

Time = 29s

--> FOAM Warning : 
    From function void Foam::Function1s::Table<Type>::checkX(Foam::scalar) const [with Type = Foam::Vector2D<double>; Foam::scalar = double]
    in file lnInclude/Table.C at line 107
    "value (0.889433) overflow"

--> FOAM Warning : 
    From function void Foam::Function1s::Table<Type>::checkX(Foam::scalar) const [with Type = Foam::Vector2D<double>; Foam::scalar = double]
    in file lnInclude/Table.C at line 107
    "value (0.849954) overflow"

smoothSolver:  Solving for Ux, Initial residual = 0.0603866, Final residual = 0.00331636, No Iterations 1
smoothSolver:  Solving for Uy, Initial residual = 0.0606336, Final residual = 0.0032659, No Iterations 1
smoothSolver:  Solving for Uz, Initial residual = 0.0691025, Final residual = 0.00397758, No Iterations 1
DICPCG:  Solving for p, Initial residual = 0.0518276, Final residual = 0.00258025, No Iterations 18
time step continuity errors : sum local = 0.0211433, global = -0.00417191, cumulative = 0.146126
smoothSolver:  Solving for omega, Initial residual = 0.0336254, Final residual = 0.00165083, No Iterations 1
smoothSolver:  Solving for k, Initial residual = 0.0869431, Final residual = 0.00453076, No Iterations 1
ExecutionTime = 24.8838 s  ClockTime = 25 s

volFieldValue Uavg_propeller write:
    volAverage(propeller) of U = (0.190319 0.151435 3.18635)

surfaceFieldValue phi_farField write:
    orientedSum(farField) of phi = -0.123347

surfaceFieldValue phi_top write:
    orientedSum(top) of phi = -0.0769047

Time = 30s

--> FOAM Warning : 
    From function void Foam::Function1s::Table<Type>::checkX(Foam::scalar) const [with Type = Foam::Vector2D<double>; Foam::scalar = double]
    in file lnInclude/Table.C at line 107
    "value (1.06212) overflow"

--> FOAM Warning : 
    From function void Foam::Function1s::Table<Type>::checkX(Foam::scalar) const [with Type = Foam::Vector2D<double>; Foam::scalar = double]
    in file lnInclude/Table.C at line 107
    "value (1.02906) overflow"

smoothSolver:  Solving for Ux, Initial residual = 0.059723, Final residual = 0.00331059, No Iterations 1
smoothSolver:  Solving for Uy, Initial residual = 0.0598884, Final residual = 0.00324904, No Iterations 1
smoothSolver:  Solving for Uz, Initial residual = 0.0668708, Final residual = 0.00385038, No Iterations 1
DICPCG:  Solving for p, Initial residual = 0.0542313, Final residual = 0.00268547, No Iterations 14
time step continuity errors : sum local = 0.0202183, global = -0.00196897, cumulative = 0.144157
smoothSolver:  Solving for omega, Initial residual = 0.034025, Final residual = 0.00166631, No Iterations 1
smoothSolver:  Solving for k, Initial residual = 0.088394, Final residual = 0.0046071, No Iterations 1
ExecutionTime = 25.6273 s  ClockTime = 26 s

volFieldValue Uavg_propeller write:
    volAverage(propeller) of U = (0.202834 0.162047 2.63144)

surfaceFieldValue phi_farField write:
    orientedSum(farField) of phi = -0.204327

surfaceFieldValue phi_top write:
    orientedSum(top) of phi = 0.109817

Time = 31s

--> FOAM Warning : 
    From function void Foam::Function1s::Table<Type>::checkX(Foam::scalar) const [with Type = Foam::Vector2D<double>; Foam::scalar = double]
    in file lnInclude/Table.C at line 107
    "value (0.877146) overflow"

--> FOAM Warning : 
    From function void Foam::Function1s::Table<Type>::checkX(Foam::scalar) const [with Type = Foam::Vector2D<double>; Foam::scalar = double]
    in file lnInclude/Table.C at line 107
    "value (0.837115) overflow"

smoothSolver:  Solving for Ux, Initial residual = 0.059081, Final residual = 0.00331598, No Iterations 1
smoothSolver:  Solving for Uy, Initial residual = 0.0593223, Final residual = 0.00324302, No Iterations 1
smoothSolver:  Solving for Uz, Initial residual = 0.0664005, Final residual = 0.00384552, No Iterations 1
DICPCG:  Solving for p, Initial residual = 0.0525929, Final residual = 0.00255732, No Iterations 23
time step continuity errors : sum local = 0.0189486, global = 0.00552267, cumulative = 0.14968
smoothSolver:  Solving for omega, Initial residual = 0.034452, Final residual = 0.00167785, No Iterations 1
smoothSolver:  Solving for k, Initial residual = 0.0892802, Final residual = 0.00466477, No Iterations 1
ExecutionTime = 26.4264 s  ClockTime = 27 s

volFieldValue Uavg_propeller write:
    volAverage(propeller) of U = (0.216569 0.173084 1.50745)

surfaceFieldValue phi_farField write:
    orientedSum(farField) of phi = -0.0943148

surfaceFieldValue phi_top write:
    orientedSum(top) of phi = 0.359403

Time = 32s

smoothSolver:  Solving for Ux, Initial residual = 0.0579785, Final residual = 0.00327792, No Iterations 1
smoothSolver:  Solving for Uy, Initial residual = 0.0582377, Final residual = 0.00320287, No Iterations 1
smoothSolver:  Solving for Uz, Initial residual = 0.0657433, Final residual = 0.00382, No Iterations 1
DICPCG:  Solving for p, Initial residual = 0.0473187, Final residual = 0.00227046, No Iterations 13
time step continuity errors : sum local = 0.0175693, global = 0.00795586, cumulative = 0.157636
smoothSolver:  Solving for omega, Initial residual = 0.0348585, Final residual = 0.00169419, No Iterations 1
smoothSolver:  Solving for k, Initial residual = 0.0898246, Final residual = 0.00473309, No Iterations 1
ExecutionTime = 27.1486 s  ClockTime = 28 s

volFieldValue Uavg_propeller write:
    volAverage(propeller) of U = (0.241459 0.175725 -0.533148)

surfaceFieldValue phi_farField write:
    orientedSum(farField) of phi = -0.191603

surfaceFieldValue phi_top write:
    orientedSum(top) of phi = 0.573484

Time = 33s

--> FOAM Warning : 
    From function void Foam::Function1s::Table<Type>::checkX(Foam::scalar) const [with Type = Foam::Vector2D<double>; Foam::scalar = double]
    in file lnInclude/Table.C at line 107
    "value (-1.51357) underflow"

smoothSolver:  Solving for Ux, Initial residual = 0.0566414, Final residual = 0.00322536, No Iterations 1
smoothSolver:  Solving for Uy, Initial residual = 0.0569057, Final residual = 0.00314809, No Iterations 1
smoothSolver:  Solving for Uz, Initial residual = 0.0643081, Final residual = 0.00374529, No Iterations 1
DICPCG:  Solving for p, Initial residual = 0.0588774, Final residual = 0.00283722, No Iterations 13
time step continuity errors : sum local = 0.0169989, global = 0.00843148, cumulative = 0.166067
smoothSolver:  Solving for omega, Initial residual = 0.0353417, Final residual = 0.00171732, No Iterations 1
smoothSolver:  Solving for k, Initial residual = 0.090153, Final residual = 0.00480087, No Iterations 1
ExecutionTime = 27.846 s  ClockTime = 28 s

volFieldValue Uavg_propeller write:
    volAverage(propeller) of U = (0.251442 0.158504 -1.71728)

surfaceFieldValue phi_farField write:
    orientedSum(farField) of phi = -0.290569

surfaceFieldValue phi_top write:
    orientedSum(top) of phi = 0.69528

Time = 34s

smoothSolver:  Solving for Ux, Initial residual = 0.0552924, Final residual = 0.00316964, No Iterations 1
smoothSolver:  Solving for Uy, Initial residual = 0.055609, Final residual = 0.00308865, No Iterations 1
smoothSolver:  Solving for Uz, Initial residual = 0.0622371, Final residual = 0.00360743, No Iterations 1
DICPCG:  Solving for p, Initial residual = 0.0861556, Final residual = 0.00404839, No Iterations 13
time step continuity errors : sum local = 0.0157437, global = 0.006105, cumulative = 0.172172
smoothSolver:  Solving for omega, Initial residual = 0.0359756, Final residual = 0.00174512, No Iterations 1
smoothSolver:  Solving for k, Initial residual = 0.0905875, Final residual = 0.00486607, No Iterations 1
ExecutionTime = 28.5474 s  ClockTime = 29 s

volFieldValue Uavg_propeller write:
    volAverage(propeller) of U = (0.238978 0.13052 -1.89841)

surfaceFieldValue phi_farField write:
    orientedSum(farField) of phi = -0.47665

surfaceFieldValue phi_top write:
    orientedSum(top) of phi = 0.769689

Time = 35s

smoothSolver:  Solving for Ux, Initial residual = 0.0545439, Final residual = 0.003146, No Iterations 1
smoothSolver:  Solving for Uy, Initial residual = 0.0548283, Final residual = 0.00305788, No Iterations 1
smoothSolver:  Solving for Uz, Initial residual = 0.0616884, Final residual = 0.00356767, No Iterations 1
DICPCG:  Solving for p, Initial residual = 0.120826, Final residual = 0.00590995, No Iterations 12
time step continuity errors : sum local = 0.015537, global = 0.00210623, cumulative = 0.174278
smoothSolver:  Solving for omega, Initial residual = 0.0366815, Final residual = 0.00178115, No Iterations 1
smoothSolver:  Solving for k, Initial residual = 0.0909301, Final residual = 0.00491618, No Iterations 1
ExecutionTime = 29.3105 s  ClockTime = 30 s

volFieldValue Uavg_propeller write:
    volAverage(propeller) of U = (0.210765 0.0953235 -1.44507)

surfaceFieldValue phi_farField write:
    orientedSum(farField) of phi = -0.72264

surfaceFieldValue phi_top write:
    orientedSum(top) of phi = 0.823739

Time = 36s

smoothSolver:  Solving for Ux, Initial residual = 0.0537937, Final residual = 0.00311825, No Iterations 1
smoothSolver:  Solving for Uy, Initial residual = 0.0540096, Final residual = 0.00302303, No Iterations 1
smoothSolver:  Solving for Uz, Initial residual = 0.0614443, Final residual = 0.0035694, No Iterations 1
DICPCG:  Solving for p, Initial residual = 0.173941, Final residual = 0.00835509, No Iterations 12
time step continuity errors : sum local = 0.0145754, global = -0.003443, cumulative = 0.170835
smoothSolver:  Solving for omega, Initial residual = 0.0375973, Final residual = 0.00182795, No Iterations 1
smoothSolver:  Solving for k, Initial residual = 0.0913513, Final residual = 0.0049557, No Iterations 1
ExecutionTime = 30.0177 s  ClockTime = 31 s

volFieldValue Uavg_propeller write:
    volAverage(propeller) of U = (0.188172 0.0570216 -1.06841)

surfaceFieldValue phi_farField write:
    orientedSum(farField) of phi = -1.02407

surfaceFieldValue phi_top write:
    orientedSum(top) of phi = 0.858805

Time = 37s

smoothSolver:  Solving for Ux, Initial residual = 0.0528265, Final residual = 0.00307465, No Iterations 1
smoothSolver:  Solving for Uy, Initial residual = 0.0529776, Final residual = 0.0029764, No Iterations 1
smoothSolver:  Solving for Uz, Initial residual = 0.0613427, Final residual = 0.00357726, No Iterations 1
DICPCG:  Solving for p, Initial residual = 0.289002, Final residual = 0.0140346, No Iterations 23
time step continuity errors : sum local = 0.0141168, global = -0.000598369, cumulative = 0.170237
smoothSolver:  Solving for omega, Initial residual = 0.0387339, Final residual = 0.00188528, No Iterations 1
smoothSolver:  Solving for k, Initial residual = 0.0917979, Final residual = 0.00498096, No Iterations 1
ExecutionTime = 30.7823 s  ClockTime = 31 s

volFieldValue Uavg_propeller write:
    volAverage(propeller) of U = (0.169734 0.029438 -0.6389)

surfaceFieldValue phi_farField write:
    orientedSum(farField) of phi = -0.942799

surfaceFieldValue phi_top write:
    orientedSum(top) of phi = 0.914077

Time = 38s

--> FOAM Warning : 
    From function void Foam::Function1s::Table<Type>::checkX(Foam::scalar) const [with Type = Foam::Vector2D<double>; Foam::scalar = double]
    in file lnInclude/Table.C at line 107
    "value (-1.14361) underflow"

smoothSolver:  Solving for Ux, Initial residual = 0.0518092, Final residual = 0.0030269, No Iterations 1
smoothSolver:  Solving for Uy, Initial residual = 0.0519126, Final residual = 0.00292541, No Iterations 1
smoothSolver:  Solving for Uz, Initial residual = 0.0610084, Final residual = 0.00355414, No Iterations 1
DICPCG:  Solving for p, Initial residual = 0.32377, Final residual = 0.0154645, No Iterations 22
time step continuity errors : sum local = 0.013413, global = -0.000177604, cumulative = 0.170059
smoothSolver:  Solving for omega, Initial residual = 0.0401055, Final residual = 0.00194475, No Iterations 1
smoothSolver:  Solving for k, Initial residual = 0.0928163, Final residual = 0.0050121, No Iterations 1
ExecutionTime = 31.5606 s  ClockTime = 32 s

volFieldValue Uavg_propeller write:
    volAverage(propeller) of U = (0.155421 0.0164316 -0.363465)

surfaceFieldValue phi_farField write:
    orientedSum(farField) of phi = -1.03725

surfaceFieldValue phi_top write:
    orientedSum(top) of phi = 1.02873

Time = 39s

--> FOAM Warning : 
    From function void Foam::Function1s::Table<Type>::checkX(Foam::scalar) const [with Type = Foam::Vector2D<double>; Foam::scalar = double]
    in file lnInclude/Table.C at line 107
    "value (-2.5073) underflow"

smoothSolver:  Solving for Ux, Initial residual = 0.0510019, Final residual = 0.00298665, No Iterations 1
smoothSolver:  Solving for Uy, Initial residual = 0.0510519, Final residual = 0.00288103, No Iterations 1
smoothSolver:  Solving for Uz, Initial residual = 0.0600726, Final residual = 0.00348891, No Iterations 1
DICPCG:  Solving for p, Initial residual = 0.165679, Final residual = 0.00826664, No Iterations 16
time step continuity errors : sum local = 0.01351, global = -0.00549799, cumulative = 0.164561
smoothSolver:  Solving for omega, Initial residual = 0.0416478, Final residual = 0.00201158, No Iterations 1
smoothSolver:  Solving for k, Initial residual = 0.0943772, Final residual = 0.00505862, No Iterations 1
ExecutionTime = 32.3338 s  ClockTime = 33 s

volFieldValue Uavg_propeller write:
    volAverage(propeller) of U = (0.141565 0.0143373 -0.347679)

surfaceFieldValue phi_farField write:
    orientedSum(farField) of phi = -1.34884

surfaceFieldValue phi_top write:
    orientedSum(top) of phi = 1.08494

Time = 40s

--> FOAM Warning : 
    From function void Foam::Function1s::Table<Type>::checkX(Foam::scalar) const [with Type = Foam::Vector2D<double>; Foam::scalar = double]
    in file lnInclude/Table.C at line 107
    "value (-2.64591) underflow"

smoothSolver:  Solving for Ux, Initial residual = 0.0503889, Final residual = 0.00295898, No Iterations 1
smoothSolver:  Solving for Uy, Initial residual = 0.050483, Final residual = 0.00285115, No Iterations 1
smoothSolver:  Solving for Uz, Initial residual = 0.0588292, Final residual = 0.00341126, No Iterations 1
DICPCG:  Solving for p, Initial residual = 0.128923, Final residual = 0.00585825, No Iterations 16
time step continuity errors : sum local = 0.0118661, global = -0.00388714, cumulative = 0.160674
smoothSolver:  Solving for omega, Initial residual = 0.0431726, Final residual = 0.00207861, No Iterations 1
smoothSolver:  Solving for k, Initial residual = 0.0962059, Final residual = 0.00511112, No Iterations 1
ExecutionTime = 33.1731 s  ClockTime = 34 s

volFieldValue Uavg_propeller write:
    volAverage(propeller) of U = (0.132893 0.020401 -0.575121)

surfaceFieldValue phi_farField write:
    orientedSum(farField) of phi = -1.37884

surfaceFieldValue phi_top write:
    orientedSum(top) of phi = 1.19225

Time = 41s

--> FOAM Warning : 
    From function void Foam::Function1s::Table<Type>::checkX(Foam::scalar) const [with Type = Foam::Vector2D<double>; Foam::scalar = double]
    in file lnInclude/Table.C at line 107
    "value (-1.35248) underflow"

smoothSolver:  Solving for Ux, Initial residual = 0.0498283, Final residual = 0.00293649, No Iterations 1
smoothSolver:  Solving for Uy, Initial residual = 0.0500029, Final residual = 0.00282838, No Iterations 1
smoothSolver:  Solving for Uz, Initial residual = 0.0577834, Final residual = 0.003365, No Iterations 1
DICPCG:  Solving for p, Initial residual = 0.111343, Final residual = 0.00549986, No Iterations 14
time step continuity errors : sum local = 0.0124004, global = -0.00300299, cumulative = 0.157671
smoothSolver:  Solving for omega, Initial residual = 0.0446617, Final residual = 0.00214527, No Iterations 1
smoothSolver:  Solving for k, Initial residual = 0.0983246, Final residual = 0.00516789, No Iterations 1
ExecutionTime = 33.929 s  ClockTime = 34 s

volFieldValue Uavg_propeller write:
    volAverage(propeller) of U = (0.123609 0.0295627 -0.921601)

surfaceFieldValue phi_farField write:
    orientedSum(farField) of phi = -1.43934

surfaceFieldValue phi_top write:
    orientedSum(top) of phi = 1.2952

Time = 42s

--> FOAM Warning : 
    From function void Foam::Function1s::Table<Type>::checkX(Foam::scalar) const [with Type = Foam::Vector2D<double>; Foam::scalar = double]
    in file lnInclude/Table.C at line 107
    "value (-0.525269) underflow"

smoothSolver:  Solving for Ux, Initial residual = 0.04914, Final residual = 0.00290356, No Iterations 1
smoothSolver:  Solving for Uy, Initial residual = 0.0493971, Final residual = 0.00279763, No Iterations 1
smoothSolver:  Solving for Uz, Initial residual = 0.0566732, Final residual = 0.00330743, No Iterations 1
DICPCG:  Solving for p, Initial residual = 0.103078, Final residual = 0.00464039, No Iterations 14
time step continuity errors : sum local = 0.0107547, global = -0.000703059, cumulative = 0.156968
smoothSolver:  Solving for omega, Initial residual = 0.0461392, Final residual = 0.00220924, No Iterations 1
smoothSolver:  Solving for k, Initial residual = 0.100439, Final residual = 0.00521993, No Iterations 1
ExecutionTime = 34.6235 s  ClockTime = 35 s

volFieldValue Uavg_propeller write:
    volAverage(propeller) of U = (0.111967 0.0346608 -1.23397)

surfaceFieldValue phi_farField write:
    orientedSum(farField) of phi = -1.44929

surfaceFieldValue phi_top write:
    orientedSum(top) of phi = 1.41554

Time = 43s

smoothSolver:  Solving for Ux, Initial residual = 0.0483416, Final residual = 0.00286189, No Iterations 1
smoothSolver:  Solving for Uy, Initial residual = 0.0486547, Final residual = 0.00275914, No Iterations 1
smoothSolver:  Solving for Uz, Initial residual = 0.0552862, Final residual = 0.00322089, No Iterations 1
DICPCG:  Solving for p, Initial residual = 0.0993189, Final residual = 0.00451547, No Iterations 13
time step continuity errors : sum local = 0.0103408, global = 0.00116126, cumulative = 0.158129
smoothSolver:  Solving for omega, Initial residual = 0.0475763, Final residual = 0.0022692, No Iterations 1
smoothSolver:  Solving for k, Initial residual = 0.102075, Final residual = 0.00524056, No Iterations 1
ExecutionTime = 35.3324 s  ClockTime = 36 s

volFieldValue Uavg_propeller write:
    volAverage(propeller) of U = (0.0986602 0.0331563 -1.41102)

surfaceFieldValue phi_farField write:
    orientedSum(farField) of phi = -1.48018

surfaceFieldValue phi_top write:
    orientedSum(top) of phi = 1.53592

Time = 44s

smoothSolver:  Solving for Ux, Initial residual = 0.0475341, Final residual = 0.00281556, No Iterations 1
smoothSolver:  Solving for Uy, Initial residual = 0.0478799, Final residual = 0.00271745, No Iterations 1
smoothSolver:  Solving for Uz, Initial residual = 0.0537676, Final residual = 0.00311906, No Iterations 1
DICPCG:  Solving for p, Initial residual = 0.0973742, Final residual = 0.00476736, No Iterations 13
time step continuity errors : sum local = 0.0106414, global = 0.00304868, cumulative = 0.161178
smoothSolver:  Solving for omega, Initial residual = 0.0488848, Final residual = 0.00232742, No Iterations 1
smoothSolver:  Solving for k, Initial residual = 0.102867, Final residual = 0.00522434, No Iterations 1
ExecutionTime = 36.0557 s  ClockTime = 37 s

volFieldValue Uavg_propeller write:
    volAverage(propeller) of U = (0.0860927 0.0281231 -1.43992)

surfaceFieldValue phi_farField write:
    orientedSum(farField) of phi = -1.51032

surfaceFieldValue phi_top write:
    orientedSum(top) of phi = 1.65666

Time = 45s

smoothSolver:  Solving for Ux, Initial residual = 0.0466786, Final residual = 0.00276339, No Iterations 1
smoothSolver:  Solving for Uy, Initial residual = 0.0470686, Final residual = 0.00267236, No Iterations 1
smoothSolver:  Solving for Uz, Initial residual = 0.0523255, Final residual = 0.00301741, No Iterations 1
DICPCG:  Solving for p, Initial residual = 0.0983605, Final residual = 0.0045835, No Iterations 22
time step continuity errors : sum local = 0.0097339, global = 0.00129814, cumulative = 0.162476
smoothSolver:  Solving for omega, Initial residual = 0.0500614, Final residual = 0.00237989, No Iterations 1
smoothSolver:  Solving for k, Initial residual = 0.10319, Final residual = 0.00517643, No Iterations 1
ExecutionTime = 36.9038 s  ClockTime = 37 s

volFieldValue Uavg_propeller write:
    volAverage(propeller) of U = (0.0779926 0.0193851 -1.36919)

surfaceFieldValue phi_farField write:
    orientedSum(farField) of phi = -1.67172

surfaceFieldValue phi_top write:
    orientedSum(top) of phi = 1.73403

Time = 46s

smoothSolver:  Solving for Ux, Initial residual = 0.0457003, Final residual = 0.00270005, No Iterations 1
smoothSolver:  Solving for Uy, Initial residual = 0.0461389, Final residual = 0.00261781, No Iterations 1
smoothSolver:  Solving for Uz, Initial residual = 0.0504866, Final residual = 0.00289759, No Iterations 1
DICPCG:  Solving for p, Initial residual = 0.10689, Final residual = 0.00531287, No Iterations 13
time step continuity errors : sum local = 0.00990199, global = 0.00392332, cumulative = 0.166399
smoothSolver:  Solving for omega, Initial residual = 0.051, Final residual = 0.00242231, No Iterations 1
smoothSolver:  Solving for k, Initial residual = 0.10305, Final residual = 0.00510062, No Iterations 1
ExecutionTime = 37.7014 s  ClockTime = 38 s

volFieldValue Uavg_propeller write:
    volAverage(propeller) of U = (0.0702714 0.0146225 -1.26134)

surfaceFieldValue phi_farField write:
    orientedSum(farField) of phi = -1.68373

surfaceFieldValue phi_top write:
    orientedSum(top) of phi = 1.87205

Time = 47s

smoothSolver:  Solving for Ux, Initial residual = 0.0447362, Final residual = 0.0026356, No Iterations 1
smoothSolver:  Solving for Uy, Initial residual = 0.0452249, Final residual = 0.00256301, No Iterations 1
smoothSolver:  Solving for Uz, Initial residual = 0.0494005, Final residual = 0.00282199, No Iterations 1
DICPCG:  Solving for p, Initial residual = 0.105704, Final residual = 0.00509557, No Iterations 13
time step continuity errors : sum local = 0.00911569, global = 0.0035325, cumulative = 0.169932
smoothSolver:  Solving for omega, Initial residual = 0.0517539, Final residual = 0.00244991, No Iterations 1
smoothSolver:  Solving for k, Initial residual = 0.103188, Final residual = 0.0050206, No Iterations 1
ExecutionTime = 38.5364 s  ClockTime = 39 s

volFieldValue Uavg_propeller write:
    volAverage(propeller) of U = (0.0651736 0.0114139 -1.17773)

surfaceFieldValue phi_farField write:
    orientedSum(farField) of phi = -1.80139

surfaceFieldValue phi_top write:
    orientedSum(top) of phi = 1.97095

Time = 48s

smoothSolver:  Solving for Ux, Initial residual = 0.0437009, Final residual = 0.00256301, No Iterations 1
smoothSolver:  Solving for Uy, Initial residual = 0.0442309, Final residual = 0.00250019, No Iterations 1
smoothSolver:  Solving for Uz, Initial residual = 0.0482003, Final residual = 0.00273241, No Iterations 1
DICPCG:  Solving for p, Initial residual = 0.103926, Final residual = 0.00509484, No Iterations 12
time step continuity errors : sum local = 0.00876296, global = 0.00293659, cumulative = 0.172869
smoothSolver:  Solving for omega, Initial residual = 0.0522522, Final residual = 0.00246132, No Iterations 1
smoothSolver:  Solving for k, Initial residual = 0.103206, Final residual = 0.00492394, No Iterations 1
ExecutionTime = 39.2241 s  ClockTime = 40 s

volFieldValue Uavg_propeller write:
    volAverage(propeller) of U = (0.0596304 0.012177 -1.147)

surfaceFieldValue phi_farField write:
    orientedSum(farField) of phi = -1.92627

surfaceFieldValue phi_top write:
    orientedSum(top) of phi = 2.06722

Time = 49s

smoothSolver:  Solving for Ux, Initial residual = 0.0426767, Final residual = 0.00248888, No Iterations 1
smoothSolver:  Solving for Uy, Initial residual = 0.0432529, Final residual = 0.00243597, No Iterations 1
smoothSolver:  Solving for Uz, Initial residual = 0.0469093, Final residual = 0.00263509, No Iterations 1
DICPCG:  Solving for p, Initial residual = 0.101323, Final residual = 0.00452282, No Iterations 13
time step continuity errors : sum local = 0.00753824, global = 0.00223263, cumulative = 0.175101
smoothSolver:  Solving for omega, Initial residual = 0.0525101, Final residual = 0.00245999, No Iterations 1
smoothSolver:  Solving for k, Initial residual = 0.10296, Final residual = 0.00481437, No Iterations 1
ExecutionTime = 39.9412 s  ClockTime = 40 s

volFieldValue Uavg_propeller write:
    volAverage(propeller) of U = (0.0537193 0.0150484 -1.17022)

surfaceFieldValue phi_farField write:
    orientedSum(farField) of phi = -2.05196

surfaceFieldValue phi_top write:
    orientedSum(top) of phi = 2.15913

Time = 50s

smoothSolver:  Solving for Ux, Initial residual = 0.0416535, Final residual = 0.00241445, No Iterations 1
smoothSolver:  Solving for Uy, Initial residual = 0.0422811, Final residual = 0.00237074, No Iterations 1
smoothSolver:  Solving for Uz, Initial residual = 0.0455115, Final residual = 0.00253204, No Iterations 1
DICPCG:  Solving for p, Initial residual = 0.0983268, Final residual = 0.00425103, No Iterations 13
time step continuity errors : sum local = 0.00688888, global = 0.00152343, cumulative = 0.176625
smoothSolver:  Solving for omega, Initial residual = 0.0525106, Final residual = 0.00244144, No Iterations 1
smoothSolver:  Solving for k, Initial residual = 0.102628, Final residual = 0.00469104, No Iterations 1
ExecutionTime = 41.6795 s  ClockTime = 42 s

volFieldValue Uavg_propeller write:
    volAverage(propeller) of U = (0.0468482 0.0181606 -1.22886)

surfaceFieldValue phi_farField write:
    orientedSum(farField) of phi = -2.17734

surfaceFieldValue phi_top write:
    orientedSum(top) of phi = 2.25047

Time = 51s

smoothSolver:  Solving for Ux, Initial residual = 0.0406541, Final residual = 0.00234119, No Iterations 1
smoothSolver:  Solving for Uy, Initial residual = 0.0413243, Final residual = 0.00230547, No Iterations 1
smoothSolver:  Solving for Uz, Initial residual = 0.043995, Final residual = 0.00242414, No Iterations 1
DICPCG:  Solving for p, Initial residual = 0.0948448, Final residual = 0.00401894, No Iterations 13
time step continuity errors : sum local = 0.00635628, global = 0.000919065, cumulative = 0.177544
smoothSolver:  Solving for omega, Initial residual = 0.0521909, Final residual = 0.00240384, No Iterations 1
smoothSolver:  Solving for k, Initial residual = 0.10206, Final residual = 0.00454312, No Iterations 1
ExecutionTime = 42.4312 s  ClockTime = 43 s

volFieldValue Uavg_propeller write:
    volAverage(propeller) of U = (0.0395788 0.0201439 -1.29506)

surfaceFieldValue phi_farField write:
    orientedSum(farField) of phi = -2.29799

surfaceFieldValue phi_top write:
    orientedSum(top) of phi = 2.34211

Time = 52s

smoothSolver:  Solving for Ux, Initial residual = 0.0396675, Final residual = 0.00226914, No Iterations 1
smoothSolver:  Solving for Uy, Initial residual = 0.0403786, Final residual = 0.00224155, No Iterations 1
smoothSolver:  Solving for Uz, Initial residual = 0.0423296, Final residual = 0.00230328, No Iterations 1
DICPCG:  Solving for p, Initial residual = 0.0912706, Final residual = 0.00444221, No Iterations 12
time step continuity errors : sum local = 0.00687126, global = 0.000547395, cumulative = 0.178091
smoothSolver:  Solving for omega, Initial residual = 0.0515694, Final residual = 0.00234615, No Iterations 1
smoothSolver:  Solving for k, Initial residual = 0.100492, Final residual = 0.00436709, No Iterations 1
ExecutionTime = 43.201 s  ClockTime = 44 s

volFieldValue Uavg_propeller write:
    volAverage(propeller) of U = (0.0326174 0.0206376 -1.34736)

surfaceFieldValue phi_farField write:
    orientedSum(farField) of phi = -2.40924

surfaceFieldValue phi_top write:
    orientedSum(top) of phi = 2.43551

Time = 53s

smoothSolver:  Solving for Ux, Initial residual = 0.0386705, Final residual = 0.0021962, No Iterations 1
smoothSolver:  Solving for Uy, Initial residual = 0.0394346, Final residual = 0.00217805, No Iterations 1
smoothSolver:  Solving for Uz, Initial residual = 0.0405428, Final residual = 0.0021734, No Iterations 1
DICPCG:  Solving for p, Initial residual = 0.0879647, Final residual = 0.00414191, No Iterations 12
time step continuity errors : sum local = 0.00627277, global = 0.000437447, cumulative = 0.178529
smoothSolver:  Solving for omega, Initial residual = 0.0506122, Final residual = 0.00226934, No Iterations 1
smoothSolver:  Solving for k, Initial residual = 0.098525, Final residual = 0.00418935, No Iterations 1
ExecutionTime = 43.9152 s  ClockTime = 44 s

volFieldValue Uavg_propeller write:
    volAverage(propeller) of U = (0.0261533 0.0202741 -1.37633)

surfaceFieldValue phi_farField write:
    orientedSum(farField) of phi = -2.51185

surfaceFieldValue phi_top write:
    orientedSum(top) of phi = 2.53285

Time = 54s

smoothSolver:  Solving for Ux, Initial residual = 0.0376306, Final residual = 0.00211951, No Iterations 1
smoothSolver:  Solving for Uy, Initial residual = 0.0384838, Final residual = 0.00211295, No Iterations 1
smoothSolver:  Solving for Uz, Initial residual = 0.0386901, Final residual = 0.00203913, No Iterations 1
DICPCG:  Solving for p, Initial residual = 0.0851362, Final residual = 0.0037146, No Iterations 12
time step continuity errors : sum local = 0.00549845, global = 0.000641608, cumulative = 0.17917
smoothSolver:  Solving for omega, Initial residual = 0.0492537, Final residual = 0.00217839, No Iterations 1
smoothSolver:  Solving for k, Initial residual = 0.0960749, Final residual = 0.00401113, No Iterations 1
ExecutionTime = 44.6183 s  ClockTime = 45 s

volFieldValue Uavg_propeller write:
    volAverage(propeller) of U = (0.0206983 0.0196844 -1.38252)

surfaceFieldValue phi_farField write:
    orientedSum(farField) of phi = -2.60421

surfaceFieldValue phi_top write:
    orientedSum(top) of phi = 2.63501

Time = 55s

smoothSolver:  Solving for Ux, Initial residual = 0.0365343, Final residual = 0.00203834, No Iterations 1
smoothSolver:  Solving for Uy, Initial residual = 0.0374771, Final residual = 0.00204336, No Iterations 1
smoothSolver:  Solving for Uz, Initial residual = 0.03683, Final residual = 0.00190717, No Iterations 1
DICPCG:  Solving for p, Initial residual = 0.0828012, Final residual = 0.00388953, No Iterations 11
time step continuity errors : sum local = 0.00560557, global = 0.00125172, cumulative = 0.180422
smoothSolver:  Solving for omega, Initial residual = 0.0475259, Final residual = 0.00207925, No Iterations 1
smoothSolver:  Solving for k, Initial residual = 0.093054, Final residual = 0.00383199, No Iterations 1
ExecutionTime = 45.289 s  ClockTime = 46 s

volFieldValue Uavg_propeller write:
    volAverage(propeller) of U = (0.0159091 0.0188567 -1.37292)

surfaceFieldValue phi_farField write:
    orientedSum(farField) of phi = -2.68058

surfaceFieldValue phi_top write:
    orientedSum(top) of phi = 2.74066

Time = 56s

smoothSolver:  Solving for Ux, Initial residual = 0.0353625, Final residual = 0.00195353, No Iterations 1
smoothSolver:  Solving for Uy, Initial residual = 0.0363743, Final residual = 0.00196834, No Iterations 1
smoothSolver:  Solving for Uz, Initial residual = 0.0349847, Final residual = 0.00178061, No Iterations 1
DICPCG:  Solving for p, Initial residual = 0.0809781, Final residual = 0.00364261, No Iterations 12
time step continuity errors : sum local = 0.00508961, global = 0.00192088, cumulative = 0.182343
smoothSolver:  Solving for omega, Initial residual = 0.0455051, Final residual = 0.00196916, No Iterations 1
smoothSolver:  Solving for k, Initial residual = 0.0897258, Final residual = 0.00365533, No Iterations 1
ExecutionTime = 45.9838 s  ClockTime = 46 s

volFieldValue Uavg_propeller write:
    volAverage(propeller) of U = (0.0114811 0.0179967 -1.35693)

surfaceFieldValue phi_farField write:
    orientedSum(farField) of phi = -2.76076

surfaceFieldValue phi_top write:
    orientedSum(top) of phi = 2.85296

Time = 57s

smoothSolver:  Solving for Ux, Initial residual = 0.0340869, Final residual = 0.00186362, No Iterations 1
smoothSolver:  Solving for Uy, Initial residual = 0.0351413, Final residual = 0.00188441, No Iterations 1
smoothSolver:  Solving for Uz, Initial residual = 0.0331289, Final residual = 0.00165557, No Iterations 1
DICPCG:  Solving for p, Initial residual = 0.0798343, Final residual = 0.00391853, No Iterations 17
time step continuity errors : sum local = 0.00525609, global = 0.000652295, cumulative = 0.182995
smoothSolver:  Solving for omega, Initial residual = 0.0433134, Final residual = 0.00184814, No Iterations 1
smoothSolver:  Solving for k, Initial residual = 0.0860074, Final residual = 0.00347853, No Iterations 1
ExecutionTime = 46.7389 s  ClockTime = 47 s

volFieldValue Uavg_propeller write:
    volAverage(propeller) of U = (0.00713308 0.0175256 -1.3423)

surfaceFieldValue phi_farField write:
    orientedSum(farField) of phi = -2.93387

surfaceFieldValue phi_top write:
    orientedSum(top) of phi = 2.96518

Time = 58s

smoothSolver:  Solving for Ux, Initial residual = 0.032624, Final residual = 0.00175979, No Iterations 1
smoothSolver:  Solving for Uy, Initial residual = 0.0336967, Final residual = 0.0017859, No Iterations 1
smoothSolver:  Solving for Uz, Initial residual = 0.0310989, Final residual = 0.0015243, No Iterations 1
DICPCG:  Solving for p, Initial residual = 0.0810513, Final residual = 0.00384123, No Iterations 18
time step continuity errors : sum local = 0.0047543, global = 0.000147352, cumulative = 0.183142
smoothSolver:  Solving for omega, Initial residual = 0.0408577, Final residual = 0.00172066, No Iterations 1
smoothSolver:  Solving for k, Initial residual = 0.0819791, Final residual = 0.00329831, No Iterations 1
ExecutionTime = 47.5248 s  ClockTime = 48 s

volFieldValue Uavg_propeller write:
    volAverage(propeller) of U = (0.00268164 0.0176414 -1.33354)

surfaceFieldValue phi_farField write:
    orientedSum(farField) of phi = -3.05813

surfaceFieldValue phi_top write:
    orientedSum(top) of phi = 3.0652

Time = 59s

smoothSolver:  Solving for Ux, Initial residual = 0.0311088, Final residual = 0.00165175, No Iterations 1
smoothSolver:  Solving for Uy, Initial residual = 0.0321966, Final residual = 0.00168079, No Iterations 1
smoothSolver:  Solving for Uz, Initial residual = 0.0290732, Final residual = 0.0013961, No Iterations 1
DICPCG:  Solving for p, Initial residual = 0.0837308, Final residual = 0.00394051, No Iterations 17
time step continuity errors : sum local = 0.00443805, global = 0.000143945, cumulative = 0.183286
smoothSolver:  Solving for omega, Initial residual = 0.0382933, Final residual = 0.00159083, No Iterations 1
smoothSolver:  Solving for k, Initial residual = 0.0776606, Final residual = 0.00311411, No Iterations 1
ExecutionTime = 48.2939 s  ClockTime = 49 s

volFieldValue Uavg_propeller write:
    volAverage(propeller) of U = (-0.00181968 0.0181386 -1.33119)

surfaceFieldValue phi_farField write:
    orientedSum(farField) of phi = -3.16099

surfaceFieldValue phi_top write:
    orientedSum(top) of phi = 3.1679

Time = 60s

smoothSolver:  Solving for Ux, Initial residual = 0.0296402, Final residual = 0.00154224, No Iterations 1
smoothSolver:  Solving for Uy, Initial residual = 0.0307069, Final residual = 0.00157366, No Iterations 1
smoothSolver:  Solving for Uz, Initial residual = 0.0272453, Final residual = 0.00127994, No Iterations 1
DICPCG:  Solving for p, Initial residual = 0.0857351, Final residual = 0.00420217, No Iterations 10
time step continuity errors : sum local = 0.00433254, global = 0.00231708, cumulative = 0.185603
smoothSolver:  Solving for omega, Initial residual = 0.0356434, Final residual = 0.00146395, No Iterations 1
smoothSolver:  Solving for k, Initial residual = 0.0732064, Final residual = 0.00292476, No Iterations 1
ExecutionTime = 49.0228 s  ClockTime = 50 s

volFieldValue Uavg_propeller write:
    volAverage(propeller) of U = (-0.00624364 0.0186758 -1.33247)

surfaceFieldValue phi_farField write:
    orientedSum(farField) of phi = -3.17901

surfaceFieldValue phi_top write:
    orientedSum(top) of phi = 3.29023

Time = 61s

smoothSolver:  Solving for Ux, Initial residual = 0.0282198, Final residual = 0.00143564, No Iterations 1
smoothSolver:  Solving for Uy, Initial residual = 0.0292655, Final residual = 0.00147202, No Iterations 1
smoothSolver:  Solving for Uz, Initial residual = 0.025782, Final residual = 0.0011875, No Iterations 1
DICPCG:  Solving for p, Initial residual = 0.0833073, Final residual = 0.00392605, No Iterations 14
time step continuity errors : sum local = 0.00388405, global = 0.000933045, cumulative = 0.186536
smoothSolver:  Solving for omega, Initial residual = 0.0331203, Final residual = 0.00134608, No Iterations 1
smoothSolver:  Solving for k, Initial residual = 0.0688506, Final residual = 0.00274577, No Iterations 1
ExecutionTime = 49.7399 s  ClockTime = 50 s

volFieldValue Uavg_propeller write:
    volAverage(propeller) of U = (-0.0104342 0.0188099 -1.33368)

surfaceFieldValue phi_farField write:
    orientedSum(farField) of phi = -3.33897

surfaceFieldValue phi_top write:
    orientedSum(top) of phi = 3.38376

Time = 62s

smoothSolver:  Solving for Ux, Initial residual = 0.026753, Final residual = 0.00132533, No Iterations 1
smoothSolver:  Solving for Uy, Initial residual = 0.0277435, Final residual = 0.00136732, No Iterations 1
smoothSolver:  Solving for Uz, Initial residual = 0.0243377, Final residual = 0.00109945, No Iterations 1
DICPCG:  Solving for p, Initial residual = 0.0824571, Final residual = 0.00373297, No Iterations 14
time step continuity errors : sum local = 0.00345577, global = 0.000874972, cumulative = 0.187411
smoothSolver:  Solving for omega, Initial residual = 0.0307223, Final residual = 0.00124023, No Iterations 1
smoothSolver:  Solving for k, Initial residual = 0.0643724, Final residual = 0.00257262, No Iterations 1
ExecutionTime = 50.4497 s  ClockTime = 51 s

volFieldValue Uavg_propeller write:
    volAverage(propeller) of U = (-0.0142094 0.0184008 -1.33133)

surfaceFieldValue phi_farField write:
    orientedSum(farField) of phi = -3.44578

surfaceFieldValue phi_top write:
    orientedSum(top) of phi = 3.48778

Time = 63s

smoothSolver:  Solving for Ux, Initial residual = 0.0252745, Final residual = 0.00121785, No Iterations 1
smoothSolver:  Solving for Uy, Initial residual = 0.0262157, Final residual = 0.00126535, No Iterations 1
smoothSolver:  Solving for Uz, Initial residual = 0.0230432, Final residual = 0.00102322, No Iterations 1
DICPCG:  Solving for p, Initial residual = 0.081603, Final residual = 0.00374675, No Iterations 14
time step continuity errors : sum local = 0.00326196, global = 0.000812281, cumulative = 0.188224
smoothSolver:  Solving for omega, Initial residual = 0.0285722, Final residual = 0.00115174, No Iterations 1
smoothSolver:  Solving for k, Initial residual = 0.0601235, Final residual = 0.00240756, No Iterations 1
ExecutionTime = 51.1687 s  ClockTime = 52 s

volFieldValue Uavg_propeller write:
    volAverage(propeller) of U = (-0.0175238 0.0174506 -1.32386)

surfaceFieldValue phi_farField write:
    orientedSum(farField) of phi = -3.55313

surfaceFieldValue phi_top write:
    orientedSum(top) of phi = 3.59212

Time = 64s

smoothSolver:  Solving for Ux, Initial residual = 0.0238551, Final residual = 0.00111766, No Iterations 1
smoothSolver:  Solving for Uy, Initial residual = 0.0247689, Final residual = 0.00116969, No Iterations 1
smoothSolver:  Solving for Uz, Initial residual = 0.0218974, Final residual = 0.000957699, No Iterations 1
DICPCG:  Solving for p, Initial residual = 0.0810993, Final residual = 0.00391073, No Iterations 15
time step continuity errors : sum local = 0.00320464, global = 0.000677429, cumulative = 0.188901
smoothSolver:  Solving for omega, Initial residual = 0.0267468, Final residual = 0.00108074, No Iterations 1
smoothSolver:  Solving for k, Initial residual = 0.0562968, Final residual = 0.00226353, No Iterations 1
ExecutionTime = 51.923 s  ClockTime = 52 s

volFieldValue Uavg_propeller write:
    volAverage(propeller) of U = (-0.0204349 0.0160922 -1.31167)

surfaceFieldValue phi_farField write:
    orientedSum(farField) of phi = -3.66447

surfaceFieldValue phi_top write:
    orientedSum(top) of phi = 3.69699

Time = 65s

smoothSolver:  Solving for Ux, Initial residual = 0.0225503, Final residual = 0.00102957, No Iterations 1
smoothSolver:  Solving for Uy, Initial residual = 0.0234552, Final residual = 0.00108458, No Iterations 1
smoothSolver:  Solving for Uz, Initial residual = 0.0208939, Final residual = 0.000902178, No Iterations 1
DICPCG:  Solving for p, Initial residual = 0.0809826, Final residual = 0.00381988, No Iterations 17
[...]
smoothSolver:  Solving for Uz, Initial residual = 0.00247128, Final residual = 0.000240536, No Iterations 1
DICPCG:  Solving for p, Initial residual = 0.00721931, Final residual = 0.000359424, No Iterations 14
time step continuity errors : sum local = 3.68188e-05, global = -8.07711e-06, cumulative = 0.211321
smoothSolver:  Solving for omega, Initial residual = 0.000560133, Final residual = 3.84637e-05, No Iterations 1
smoothSolver:  Solving for k, Initial residual = 0.00264634, Final residual = 0.000235901, No Iterations 1
ExecutionTime = 701.689 s  ClockTime = 703 s

volFieldValue Uavg_propeller write:
    volAverage(propeller) of U = (0.0340568 -0.0197042 -1.10887)

surfaceFieldValue phi_farField write:
    orientedSum(farField) of phi = 0.576766

surfaceFieldValue phi_top write:
    orientedSum(top) of phi = -0.577154

Time = 983s

smoothSolver:  Solving for Ux, Initial residual = 0.00153558, Final residual = 0.000144976, No Iterations 1
smoothSolver:  Solving for Uy, Initial residual = 0.00249933, Final residual = 0.000249132, No Iterations 1
smoothSolver:  Solving for Uz, Initial residual = 0.00245614, Final residual = 0.000238974, No Iterations 1
DICPCG:  Solving for p, Initial residual = 0.00719461, Final residual = 0.000352575, No Iterations 15
time step continuity errors : sum local = 3.60298e-05, global = -7.14024e-06, cumulative = 0.211314
smoothSolver:  Solving for omega, Initial residual = 0.000558818, Final residual = 3.81917e-05, No Iterations 1
smoothSolver:  Solving for k, Initial residual = 0.00262235, Final residual = 0.000233793, No Iterations 1
ExecutionTime = 702.378 s  ClockTime = 703 s

volFieldValue Uavg_propeller write:
    volAverage(propeller) of U = (0.0340962 -0.0198549 -1.10882)

surfaceFieldValue phi_farField write:
    orientedSum(farField) of phi = 0.577628

surfaceFieldValue phi_top write:
    orientedSum(top) of phi = -0.57797

Time = 984s

smoothSolver:  Solving for Ux, Initial residual = 0.00152141, Final residual = 0.000143589, No Iterations 1
smoothSolver:  Solving for Uy, Initial residual = 0.00249046, Final residual = 0.000248198, No Iterations 1
smoothSolver:  Solving for Uz, Initial residual = 0.00244111, Final residual = 0.000237419, No Iterations 1
DICPCG:  Solving for p, Initial residual = 0.00711483, Final residual = 0.000354694, No Iterations 15
time step continuity errors : sum local = 3.61507e-05, global = -7.1452e-06, cumulative = 0.211307
smoothSolver:  Solving for omega, Initial residual = 0.000549468, Final residual = 3.78198e-05, No Iterations 1
smoothSolver:  Solving for k, Initial residual = 0.00259661, Final residual = 0.000231724, No Iterations 1
ExecutionTime = 703.041 s  ClockTime = 704 s

volFieldValue Uavg_propeller write:
    volAverage(propeller) of U = (0.0341358 -0.0200125 -1.10877)

surfaceFieldValue phi_farField write:
    orientedSum(farField) of phi = 0.578438

surfaceFieldValue phi_top write:
    orientedSum(top) of phi = -0.578781

Time = 985s

smoothSolver:  Solving for Ux, Initial residual = 0.00150808, Final residual = 0.000142252, No Iterations 1
smoothSolver:  Solving for Uy, Initial residual = 0.00248256, Final residual = 0.000247268, No Iterations 1
smoothSolver:  Solving for Uz, Initial residual = 0.00242659, Final residual = 0.000235892, No Iterations 1
DICPCG:  Solving for p, Initial residual = 0.00708622, Final residual = 0.000337306, No Iterations 16
time step continuity errors : sum local = 3.42601e-05, global = -6.08668e-06, cumulative = 0.211301
smoothSolver:  Solving for omega, Initial residual = 0.000549611, Final residual = 3.75963e-05, No Iterations 1
smoothSolver:  Solving for k, Initial residual = 0.00257646, Final residual = 0.000229891, No Iterations 1
ExecutionTime = 703.704 s  ClockTime = 705 s

volFieldValue Uavg_propeller write:
    volAverage(propeller) of U = (0.0341756 -0.0201758 -1.10872)

surfaceFieldValue phi_farField write:
    orientedSum(farField) of phi = 0.579266

surfaceFieldValue phi_top write:
    orientedSum(top) of phi = -0.579559

Time = 986s

smoothSolver:  Solving for Ux, Initial residual = 0.00149502, Final residual = 0.000140969, No Iterations 1
smoothSolver:  Solving for Uy, Initial residual = 0.00247342, Final residual = 0.000246208, No Iterations 1
smoothSolver:  Solving for Uz, Initial residual = 0.0024121, Final residual = 0.000234383, No Iterations 1
DICPCG:  Solving for p, Initial residual = 0.0070555, Final residual = 0.000335702, No Iterations 16
time step continuity errors : sum local = 3.40342e-05, global = -5.97288e-06, cumulative = 0.211295
smoothSolver:  Solving for omega, Initial residual = 0.000543885, Final residual = 3.72926e-05, No Iterations 1
smoothSolver:  Solving for k, Initial residual = 0.00255368, Final residual = 0.000228003, No Iterations 1
ExecutionTime = 704.426 s  ClockTime = 705 s

volFieldValue Uavg_propeller write:
    volAverage(propeller) of U = (0.0342157 -0.0203438 -1.10868)

surfaceFieldValue phi_farField write:
    orientedSum(farField) of phi = 0.580035

surfaceFieldValue phi_top write:
    orientedSum(top) of phi = -0.580322

Time = 987s

smoothSolver:  Solving for Ux, Initial residual = 0.00148234, Final residual = 0.000139727, No Iterations 1
smoothSolver:  Solving for Uy, Initial residual = 0.00246381, Final residual = 0.000245165, No Iterations 1
smoothSolver:  Solving for Uz, Initial residual = 0.00239748, Final residual = 0.000232856, No Iterations 1
DICPCG:  Solving for p, Initial residual = 0.00704004, Final residual = 0.000332724, No Iterations 16
time step continuity errors : sum local = 3.3623e-05, global = -5.84266e-06, cumulative = 0.211289
smoothSolver:  Solving for omega, Initial residual = 0.000543115, Final residual = 3.70359e-05, No Iterations 1
smoothSolver:  Solving for k, Initial residual = 0.00253302, Final residual = 0.000226148, No Iterations 1
ExecutionTime = 705.12 s  ClockTime = 706 s

volFieldValue Uavg_propeller write:
    volAverage(propeller) of U = (0.0342563 -0.0205164 -1.10864)

surfaceFieldValue phi_farField write:
    orientedSum(farField) of phi = 0.580782

surfaceFieldValue phi_top write:
    orientedSum(top) of phi = -0.581062

Time = 988s

smoothSolver:  Solving for Ux, Initial residual = 0.00147015, Final residual = 0.000138518, No Iterations 1
smoothSolver:  Solving for Uy, Initial residual = 0.00245466, Final residual = 0.000244133, No Iterations 1
smoothSolver:  Solving for Uz, Initial residual = 0.00238242, Final residual = 0.000231291, No Iterations 1
DICPCG:  Solving for p, Initial residual = 0.00699893, Final residual = 0.00033048, No Iterations 16
time step continuity errors : sum local = 3.33283e-05, global = -5.76204e-06, cumulative = 0.211283
smoothSolver:  Solving for omega, Initial residual = 0.000537283, Final residual = 3.67145e-05, No Iterations 1
smoothSolver:  Solving for k, Initial residual = 0.00251291, Final residual = 0.00022449, No Iterations 1
ExecutionTime = 705.818 s  ClockTime = 707 s

volFieldValue Uavg_propeller write:
    volAverage(propeller) of U = (0.0342974 -0.0206933 -1.10861)

surfaceFieldValue phi_farField write:
    orientedSum(farField) of phi = 0.581514

surfaceFieldValue phi_top write:
    orientedSum(top) of phi = -0.58179

Time = 989s

smoothSolver:  Solving for Ux, Initial residual = 0.001458, Final residual = 0.000137337, No Iterations 1
smoothSolver:  Solving for Uy, Initial residual = 0.00244529, Final residual = 0.000243122, No Iterations 1
smoothSolver:  Solving for Uz, Initial residual = 0.00236714, Final residual = 0.000229709, No Iterations 1
DICPCG:  Solving for p, Initial residual = 0.00699196, Final residual = 0.000332445, No Iterations 16
time step continuity errors : sum local = 3.33929e-05, global = -5.77735e-06, cumulative = 0.211278
smoothSolver:  Solving for omega, Initial residual = 0.000534868, Final residual = 3.64302e-05, No Iterations 1
smoothSolver:  Solving for k, Initial residual = 0.00249269, Final residual = 0.000222827, No Iterations 1
ExecutionTime = 706.472 s  ClockTime = 707 s

volFieldValue Uavg_propeller write:
    volAverage(propeller) of U = (0.0343389 -0.0208741 -1.10857)

surfaceFieldValue phi_farField write:
    orientedSum(farField) of phi = 0.582223

surfaceFieldValue phi_top write:
    orientedSum(top) of phi = -0.582501

Time = 990s

smoothSolver:  Solving for Ux, Initial residual = 0.00144645, Final residual = 0.000136174, No Iterations 1
smoothSolver:  Solving for Uy, Initial residual = 0.0024368, Final residual = 0.000242115, No Iterations 1
smoothSolver:  Solving for Uz, Initial residual = 0.00235139, Final residual = 0.000228066, No Iterations 1
DICPCG:  Solving for p, Initial residual = 0.00696525, Final residual = 0.000338005, No Iterations 16
time step continuity errors : sum local = 3.38338e-05, global = -5.89198e-06, cumulative = 0.211272
smoothSolver:  Solving for omega, Initial residual = 0.000528058, Final residual = 3.6271e-05, No Iterations 1
smoothSolver:  Solving for k, Initial residual = 0.00247784, Final residual = 0.000221471, No Iterations 1
ExecutionTime = 707.152 s  ClockTime = 708 s

volFieldValue Uavg_propeller write:
    volAverage(propeller) of U = (0.0343809 -0.0210588 -1.10854)

surfaceFieldValue phi_farField write:
    orientedSum(farField) of phi = 0.582908

surfaceFieldValue phi_top write:
    orientedSum(top) of phi = -0.583191

Time = 991s

smoothSolver:  Solving for Ux, Initial residual = 0.00143536, Final residual = 0.000135056, No Iterations 1
smoothSolver:  Solving for Uy, Initial residual = 0.0024276, Final residual = 0.000241103, No Iterations 1
smoothSolver:  Solving for Uz, Initial residual = 0.00233551, Final residual = 0.000226437, No Iterations 1
DICPCG:  Solving for p, Initial residual = 0.00696088, Final residual = 0.000332716, No Iterations 17
time step continuity errors : sum local = 3.31797e-05, global = -5.02251e-06, cumulative = 0.211267
smoothSolver:  Solving for omega, Initial residual = 0.000530578, Final residual = 3.605e-05, No Iterations 1
smoothSolver:  Solving for k, Initial residual = 0.00245966, Final residual = 0.00021989, No Iterations 1
ExecutionTime = 707.851 s  ClockTime = 709 s

volFieldValue Uavg_propeller write:
    volAverage(propeller) of U = (0.034423 -0.0212472 -1.10852)

surfaceFieldValue phi_farField write:
    orientedSum(farField) of phi = 0.583606

surfaceFieldValue phi_top write:
    orientedSum(top) of phi = -0.583847

Time = 992s

smoothSolver:  Solving for Ux, Initial residual = 0.0014243, Final residual = 0.000133962, No Iterations 1
smoothSolver:  Solving for Uy, Initial residual = 0.00241852, Final residual = 0.000240059, No Iterations 1
smoothSolver:  Solving for Uz, Initial residual = 0.00231998, Final residual = 0.000224793, No Iterations 1
DICPCG:  Solving for p, Initial residual = 0.00692695, Final residual = 0.000341128, No Iterations 17
time step continuity errors : sum local = 3.39074e-05, global = -5.14198e-06, cumulative = 0.211262
smoothSolver:  Solving for omega, Initial residual = 0.000527236, Final residual = 3.58624e-05, No Iterations 1
smoothSolver:  Solving for k, Initial residual = 0.00244394, Final residual = 0.000218485, No Iterations 1
ExecutionTime = 708.525 s  ClockTime = 709 s

volFieldValue Uavg_propeller write:
    volAverage(propeller) of U = (0.034465 -0.021439 -1.10849)

surfaceFieldValue phi_farField write:
    orientedSum(farField) of phi = 0.584251

surfaceFieldValue phi_top write:
    orientedSum(top) of phi = -0.584498

Time = 993s

smoothSolver:  Solving for Ux, Initial residual = 0.00141366, Final residual = 0.0001329, No Iterations 1
smoothSolver:  Solving for Uy, Initial residual = 0.00240854, Final residual = 0.000238973, No Iterations 1
smoothSolver:  Solving for Uz, Initial residual = 0.0023045, Final residual = 0.000223169, No Iterations 1
DICPCG:  Solving for p, Initial residual = 0.00693103, Final residual = 0.000346032, No Iterations 17
time step continuity errors : sum local = 3.4297e-05, global = -5.21043e-06, cumulative = 0.211256
smoothSolver:  Solving for omega, Initial residual = 0.00052242, Final residual = 3.56391e-05, No Iterations 1
smoothSolver:  Solving for k, Initial residual = 0.00242602, Final residual = 0.000217009, No Iterations 1
ExecutionTime = 709.213 s  ClockTime = 710 s

volFieldValue Uavg_propeller write:
    volAverage(propeller) of U = (0.0345067 -0.0216341 -1.10847)

surfaceFieldValue phi_farField write:
    orientedSum(farField) of phi = 0.584851

surfaceFieldValue phi_top write:
    orientedSum(top) of phi = -0.585101

Time = 994s

smoothSolver:  Solving for Ux, Initial residual = 0.00140339, Final residual = 0.000131861, No Iterations 1
smoothSolver:  Solving for Uy, Initial residual = 0.00239926, Final residual = 0.000237906, No Iterations 1
smoothSolver:  Solving for Uz, Initial residual = 0.00228862, Final residual = 0.000221516, No Iterations 1
DICPCG:  Solving for p, Initial residual = 0.00693574, Final residual = 0.000323108, No Iterations 18
time step continuity errors : sum local = 3.1989e-05, global = -4.25239e-06, cumulative = 0.211252
smoothSolver:  Solving for omega, Initial residual = 0.000522002, Final residual = 3.5447e-05, No Iterations 1
smoothSolver:  Solving for k, Initial residual = 0.00241177, Final residual = 0.000215717, No Iterations 1
ExecutionTime = 709.883 s  ClockTime = 711 s

volFieldValue Uavg_propeller write:
    volAverage(propeller) of U = (0.0345482 -0.0218321 -1.10845)

surfaceFieldValue phi_farField write:
    orientedSum(farField) of phi = 0.585471

surfaceFieldValue phi_top write:
    orientedSum(top) of phi = -0.585675

Time = 995s

smoothSolver:  Solving for Ux, Initial residual = 0.00139347, Final residual = 0.000130874, No Iterations 1
smoothSolver:  Solving for Uy, Initial residual = 0.00238914, Final residual = 0.000236819, No Iterations 1
smoothSolver:  Solving for Uz, Initial residual = 0.00227292, Final residual = 0.00021988, No Iterations 1
DICPCG:  Solving for p, Initial residual = 0.00694089, Final residual = 0.000338943, No Iterations 17
time step continuity errors : sum local = 3.33948e-05, global = -5.17184e-06, cumulative = 0.211247
smoothSolver:  Solving for omega, Initial residual = 0.000520789, Final residual = 3.52061e-05, No Iterations 1
smoothSolver:  Solving for k, Initial residual = 0.0023963, Final residual = 0.000214408, No Iterations 1
ExecutionTime = 710.511 s  ClockTime = 711 s

volFieldValue Uavg_propeller write:
    volAverage(propeller) of U = (0.0345893 -0.0220326 -1.10843)

surfaceFieldValue phi_farField write:
    orientedSum(farField) of phi = 0.586015

surfaceFieldValue phi_top write:
    orientedSum(top) of phi = -0.586263

Time = 996s

smoothSolver:  Solving for Ux, Initial residual = 0.00138399, Final residual = 0.000129905, No Iterations 1
smoothSolver:  Solving for Uy, Initial residual = 0.00238027, Final residual = 0.000235808, No Iterations 1
smoothSolver:  Solving for Uz, Initial residual = 0.00225707, Final residual = 0.000218239, No Iterations 1
DICPCG:  Solving for p, Initial residual = 0.00693592, Final residual = 0.000335155, No Iterations 17
time step continuity errors : sum local = 3.28832e-05, global = -5.14232e-06, cumulative = 0.211242
smoothSolver:  Solving for omega, Initial residual = 0.000514824, Final residual = 3.49639e-05, No Iterations 1
smoothSolver:  Solving for k, Initial residual = 0.00238194, Final residual = 0.000213142, No Iterations 1
ExecutionTime = 711.236 s  ClockTime = 712 s

volFieldValue Uavg_propeller write:
    volAverage(propeller) of U = (0.0346299 -0.0222355 -1.10841)

surfaceFieldValue phi_farField write:
    orientedSum(farField) of phi = 0.58658

surfaceFieldValue phi_top write:
    orientedSum(top) of phi = -0.586827

Time = 997s

smoothSolver:  Solving for Ux, Initial residual = 0.00137487, Final residual = 0.000128968, No Iterations 1
smoothSolver:  Solving for Uy, Initial residual = 0.00237151, Final residual = 0.000234833, No Iterations 1
smoothSolver:  Solving for Uz, Initial residual = 0.00224157, Final residual = 0.000216622, No Iterations 1
DICPCG:  Solving for p, Initial residual = 0.00694321, Final residual = 0.000334225, No Iterations 17
time step continuity errors : sum local = 3.25747e-05, global = -5.14069e-06, cumulative = 0.211237
smoothSolver:  Solving for omega, Initial residual = 0.000513758, Final residual = 3.47406e-05, No Iterations 1
smoothSolver:  Solving for k, Initial residual = 0.00236752, Final residual = 0.000211904, No Iterations 1
ExecutionTime = 711.924 s  ClockTime = 713 s

volFieldValue Uavg_propeller write:
    volAverage(propeller) of U = (0.0346701 -0.0224403 -1.1084)

surfaceFieldValue phi_farField write:
    orientedSum(farField) of phi = 0.587132

surfaceFieldValue phi_top write:
    orientedSum(top) of phi = -0.587379

Time = 998s

smoothSolver:  Solving for Ux, Initial residual = 0.00136591, Final residual = 0.000128054, No Iterations 1
smoothSolver:  Solving for Uy, Initial residual = 0.00236311, Final residual = 0.000233869, No Iterations 1
smoothSolver:  Solving for Uz, Initial residual = 0.00222633, Final residual = 0.000215023, No Iterations 1
DICPCG:  Solving for p, Initial residual = 0.00695949, Final residual = 0.000335998, No Iterations 17
time step continuity errors : sum local = 3.26046e-05, global = -5.17886e-06, cumulative = 0.211232
smoothSolver:  Solving for omega, Initial residual = 0.000512821, Final residual = 3.45932e-05, No Iterations 1
smoothSolver:  Solving for k, Initial residual = 0.00235429, Final residual = 0.000210753, No Iterations 1
ExecutionTime = 712.582 s  ClockTime = 713 s

volFieldValue Uavg_propeller write:
    volAverage(propeller) of U = (0.0347097 -0.0226467 -1.10839)

surfaceFieldValue phi_farField write:
    orientedSum(farField) of phi = 0.587662

surfaceFieldValue phi_top write:
    orientedSum(top) of phi = -0.587911

Time = 999s

smoothSolver:  Solving for Ux, Initial residual = 0.0013574, Final residual = 0.000127177, No Iterations 1
smoothSolver:  Solving for Uy, Initial residual = 0.0023545, Final residual = 0.000232923, No Iterations 1
smoothSolver:  Solving for Uz, Initial residual = 0.00221104, Final residual = 0.000213435, No Iterations 1
DICPCG:  Solving for p, Initial residual = 0.00699507, Final residual = 0.000340164, No Iterations 17
time step continuity errors : sum local = 3.29042e-05, global = -5.22389e-06, cumulative = 0.211226
smoothSolver:  Solving for omega, Initial residual = 0.000507306, Final residual = 3.44621e-05, No Iterations 1
smoothSolver:  Solving for k, Initial residual = 0.00234216, Final residual = 0.000209644, No Iterations 1
ExecutionTime = 713.214 s  ClockTime = 714 s

volFieldValue Uavg_propeller write:
    volAverage(propeller) of U = (0.0347488 -0.0228542 -1.10838)

surfaceFieldValue phi_farField write:
    orientedSum(farField) of phi = 0.588163

surfaceFieldValue phi_top write:
    orientedSum(top) of phi = -0.588414

Time = 1000s

smoothSolver:  Solving for Ux, Initial residual = 0.00134934, Final residual = 0.000126326, No Iterations 1
smoothSolver:  Solving for Uy, Initial residual = 0.00234578, Final residual = 0.000231992, No Iterations 1
smoothSolver:  Solving for Uz, Initial residual = 0.00219563, Final residual = 0.000211848, No Iterations 1
DICPCG:  Solving for p, Initial residual = 0.00698601, Final residual = 0.000344196, No Iterations 17
time step continuity errors : sum local = 3.32323e-05, global = -5.27016e-06, cumulative = 0.211221
smoothSolver:  Solving for omega, Initial residual = 0.000507738, Final residual = 3.42008e-05, No Iterations 1
smoothSolver:  Solving for k, Initial residual = 0.00232855, Final residual = 0.000208552, No Iterations 1
ExecutionTime = 714.882 s  ClockTime = 716 s

volFieldValue Uavg_propeller write:
    volAverage(propeller) of U = (0.0347872 -0.0230625 -1.10837)

surfaceFieldValue phi_farField write:
    orientedSum(farField) of phi = 0.588639

surfaceFieldValue phi_top write:
    orientedSum(top) of phi = -0.588892

End

