/*---------------------------------------------------------------------------*\
  =========                 |
  \\      /  F ield         | OpenFOAM: The Open Source CFD Toolbox
   \\    /   O peration     | Website:  https://openfoam.org
    \\  /    A nd           | Version:  13
     \\/     M anipulation  |
\*---------------------------------------------------------------------------*/
Build  : 13-cde978a97c93
Exec   : foamRun
Date   : Feb 26 2026
Time   : 14:58:12
Host   : "JOO-DESKTOP"
PID    : 24178
I/O    : uncollated
Case   : /home/joo/OpenFOAM/joo-13/run/trackB_propellerIGE_v13/cases/baseCase
nProcs : 1
sigFpe : Enabling floating point exception trapping (FOAM_SIGFPE).
fileModificationChecking : Monitoring run-time modified files using timeStampMaster (fileModificationSkew 10)
allowSystemOperations : Allowing user-supplied system call operations

// * * * * * * * * * * * * * * * * * * * * * * * * * * * * * * * * * * * * * //
Create time

Create mesh for time = 300

Selecting solver incompressibleFluid
Selecting viscosity model constant
Selecting turbulence model type RAS
    Selecting RAS turbulence model kOmegaSST
No MRF models present

Selecting patchDistMethod meshWave
Creating fvModels from "constant/fvModels"

Selecting finite volume model type propellerDisk
    Name: diskSource

SIMPLE: Convergence criteria found
        p: tolerance 0.0001
        U: tolerance 1e-05
        k: tolerance 1e-05
        omega: tolerance 1e-05


SIMPLE: Operating solver in steady-state mode with 1 outer corrector
SIMPLE: Operating solver in SIMPLE mode



Starting time loop

Reading set description:
    line

Time = 301s

smoothSolver:  Solving for Ux, Initial residual = 0.00154871, Final residual = 0.000150843, No Iterations 1
smoothSolver:  Solving for Uy, Initial residual = 0.00736103, Final residual = 0.000146616, No Iterations 2
smoothSolver:  Solving for Uz, Initial residual = 0.00502602, Final residual = 0.000105777, No Iterations 2
DICPCG:  Solving for p, Initial residual = 0.0494658, Final residual = 0.00482133, No Iterations 10
time step continuity errors : sum local = 4.04471, global = -0.349529, cumulative = -0.349529
smoothSolver:  Solving for omega, Initial residual = 0.00287647, Final residual = 0.000230121, No Iterations 1
smoothSolver:  Solving for k, Initial residual = 0.12424, Final residual = 0.0112178, No Iterations 1
ExecutionTime = 0.90026 s  ClockTime = 1 s

Time = 302s

smoothSolver:  Solving for Ux, Initial residual = 0.00147156, Final residual = 0.000142248, No Iterations 1
smoothSolver:  Solving for Uy, Initial residual = 0.00728958, Final residual = 0.000145765, No Iterations 2
smoothSolver:  Solving for Uz, Initial residual = 0.00516129, Final residual = 0.000112262, No Iterations 2
DICPCG:  Solving for p, Initial residual = 0.0493959, Final residual = 0.00470826, No Iterations 6
time step continuity errors : sum local = 3.98142, global = -0.0915807, cumulative = -0.44111
smoothSolver:  Solving for omega, Initial residual = 0.00277488, Final residual = 0.000222155, No Iterations 1
smoothSolver:  Solving for k, Initial residual = 0.116927, Final residual = 0.0115431, No Iterations 1
ExecutionTime = 1.0021 s  ClockTime = 1 s

Time = 303s

smoothSolver:  Solving for Ux, Initial residual = 0.00139606, Final residual = 0.000134495, No Iterations 1
smoothSolver:  Solving for Uy, Initial residual = 0.00717016, Final residual = 0.000142743, No Iterations 2
smoothSolver:  Solving for Uz, Initial residual = 0.00532031, Final residual = 0.000117403, No Iterations 2
DICPCG:  Solving for p, Initial residual = 0.0497291, Final residual = 0.00440065, No Iterations 15
time step continuity errors : sum local = 3.70689, global = -0.0463741, cumulative = -0.487484
smoothSolver:  Solving for omega, Initial residual = 0.00266209, Final residual = 0.000212561, No Iterations 1
smoothSolver:  Solving for k, Initial residual = 0.112169, Final residual = 0.0104694, No Iterations 1
ExecutionTime = 1.09508 s  ClockTime = 1 s

Time = 304s

smoothSolver:  Solving for Ux, Initial residual = 0.0013474, Final residual = 0.000128089, No Iterations 1
smoothSolver:  Solving for Uy, Initial residual = 0.00715747, Final residual = 0.00014109, No Iterations 2
smoothSolver:  Solving for Uz, Initial residual = 0.0055969, Final residual = 0.000120187, No Iterations 2
DICPCG:  Solving for p, Initial residual = 0.050674, Final residual = 0.00405507, No Iterations 7
time step continuity errors : sum local = 3.40286, global = 0.0485854, cumulative = -0.438899
smoothSolver:  Solving for omega, Initial residual = 0.00259956, Final residual = 0.000206535, No Iterations 1
smoothSolver:  Solving for k, Initial residual = 0.105954, Final residual = 0.00985039, No Iterations 1
ExecutionTime = 1.18302 s  ClockTime = 1 s

Time = 305s

smoothSolver:  Solving for Ux, Initial residual = 0.00133957, Final residual = 0.000127526, No Iterations 1
smoothSolver:  Solving for Uy, Initial residual = 0.007109, Final residual = 0.000137979, No Iterations 2
smoothSolver:  Solving for Uz, Initial residual = 0.00576647, Final residual = 0.000121056, No Iterations 2
DICPCG:  Solving for p, Initial residual = 0.0506668, Final residual = 0.00454806, No Iterations 8
time step continuity errors : sum local = 3.82463, global = -0.0259554, cumulative = -0.464854
smoothSolver:  Solving for omega, Initial residual = 0.00248879, Final residual = 0.00020047, No Iterations 1
smoothSolver:  Solving for k, Initial residual = 0.114103, Final residual = 0.0107073, No Iterations 1
ExecutionTime = 1.27641 s  ClockTime = 1 s

Time = 306s

smoothSolver:  Solving for Ux, Initial residual = 0.00136765, Final residual = 0.000130438, No Iterations 1
smoothSolver:  Solving for Uy, Initial residual = 0.00714608, Final residual = 0.000137367, No Iterations 2
smoothSolver:  Solving for Uz, Initial residual = 0.00591069, Final residual = 0.000120192, No Iterations 2
DICPCG:  Solving for p, Initial residual = 0.0525234, Final residual = 0.00521157, No Iterations 10
time step continuity errors : sum local = 4.27709, global = -0.102106, cumulative = -0.56696
smoothSolver:  Solving for omega, Initial residual = 0.00237812, Final residual = 0.000194723, No Iterations 1
smoothSolver:  Solving for k, Initial residual = 0.117733, Final residual = 0.0110539, No Iterations 1
ExecutionTime = 1.37041 s  ClockTime = 1 s

Time = 307s

smoothSolver:  Solving for Ux, Initial residual = 0.00141986, Final residual = 0.000135384, No Iterations 1
smoothSolver:  Solving for Uy, Initial residual = 0.00732178, Final residual = 0.000139611, No Iterations 2
smoothSolver:  Solving for Uz, Initial residual = 0.00601277, Final residual = 0.00011788, No Iterations 2
DICPCG:  Solving for p, Initial residual = 0.0528908, Final residual = 0.00526666, No Iterations 10
time step continuity errors : sum local = 4.3335, global = -0.113375, cumulative = -0.680335
smoothSolver:  Solving for omega, Initial residual = 0.00226001, Final residual = 0.000189108, No Iterations 1
smoothSolver:  Solving for k, Initial residual = 0.0875461, Final residual = 0.00162327, No Iterations 2
ExecutionTime = 1.46772 s  ClockTime = 1 s

Time = 308s

smoothSolver:  Solving for Ux, Initial residual = 0.0014815, Final residual = 0.000141376, No Iterations 1
smoothSolver:  Solving for Uy, Initial residual = 0.00751046, Final residual = 0.000143284, No Iterations 2
smoothSolver:  Solving for Uz, Initial residual = 0.00606927, Final residual = 0.000116209, No Iterations 2
DICPCG:  Solving for p, Initial residual = 0.0517588, Final residual = 0.00450645, No Iterations 6
time step continuity errors : sum local = 3.82913, global = -0.022244, cumulative = -0.702579
smoothSolver:  Solving for omega, Initial residual = 0.00215259, Final residual = 0.000184367, No Iterations 1
smoothSolver:  Solving for k, Initial residual = 0.114077, Final residual = 0.0104572, No Iterations 1
ExecutionTime = 1.55609 s  ClockTime = 2 s

Time = 309s

smoothSolver:  Solving for Ux, Initial residual = 0.001517, Final residual = 0.000142896, No Iterations 1
smoothSolver:  Solving for Uy, Initial residual = 0.00758504, Final residual = 0.000144071, No Iterations 2
smoothSolver:  Solving for Uz, Initial residual = 0.00615326, Final residual = 0.000118899, No Iterations 2
DICPCG:  Solving for p, Initial residual = 0.0533675, Final residual = 0.00460863, No Iterations 7
time step continuity errors : sum local = 3.81674, global = -0.0198806, cumulative = -0.72246
smoothSolver:  Solving for omega, Initial residual = 0.00204774, Final residual = 0.000180429, No Iterations 1
smoothSolver:  Solving for k, Initial residual = 0.109362, Final residual = 0.0101767, No Iterations 1
ExecutionTime = 1.64697 s  ClockTime = 2 s

Time = 310s

smoothSolver:  Solving for Ux, Initial residual = 0.00156711, Final residual = 0.00014651, No Iterations 1
smoothSolver:  Solving for Uy, Initial residual = 0.00767825, Final residual = 0.00014419, No Iterations 2
smoothSolver:  Solving for Uz, Initial residual = 0.00621366, Final residual = 0.000120798, No Iterations 2
DICPCG:  Solving for p, Initial residual = 0.0548737, Final residual = 0.00536724, No Iterations 7
time step continuity errors : sum local = 4.39798, global = -0.00971676, cumulative = -0.732177
smoothSolver:  Solving for omega, Initial residual = 0.00195452, Final residual = 0.000178261, No Iterations 1
smoothSolver:  Solving for k, Initial residual = 0.0892739, Final residual = 0.00176539, No Iterations 2
ExecutionTime = 1.74353 s  ClockTime = 2 s

Time = 311s

smoothSolver:  Solving for Ux, Initial residual = 0.00162296, Final residual = 0.000151177, No Iterations 1
smoothSolver:  Solving for Uy, Initial residual = 0.00777265, Final residual = 0.000142363, No Iterations 2
smoothSolver:  Solving for Uz, Initial residual = 0.00626776, Final residual = 0.000122201, No Iterations 2
DICPCG:  Solving for p, Initial residual = 0.056749, Final residual = 0.00486626, No Iterations 8
time step continuity errors : sum local = 3.99626, global = -0.0173271, cumulative = -0.749504
smoothSolver:  Solving for omega, Initial residual = 0.00188941, Final residual = 0.000178329, No Iterations 1
smoothSolver:  Solving for k, Initial residual = 0.113804, Final residual = 0.0103515, No Iterations 1
ExecutionTime = 1.83653 s  ClockTime = 2 s

Time = 312s

smoothSolver:  Solving for Ux, Initial residual = 0.00168164, Final residual = 0.000157408, No Iterations 1
smoothSolver:  Solving for Uy, Initial residual = 0.00785682, Final residual = 0.000780944, No Iterations 1
smoothSolver:  Solving for Uz, Initial residual = 0.00631855, Final residual = 0.000125244, No Iterations 2
DICPCG:  Solving for p, Initial residual = 0.0571561, Final residual = 0.00547496, No Iterations 7
time step continuity errors : sum local = 4.51088, global = 0.0486307, cumulative = -0.700873
smoothSolver:  Solving for omega, Initial residual = 0.00183995, Final residual = 0.0001782, No Iterations 1
smoothSolver:  Solving for k, Initial residual = 0.0963687, Final residual = 0.00939383, No Iterations 1
ExecutionTime = 1.91683 s  ClockTime = 2 s

Time = 313s

smoothSolver:  Solving for Ux, Initial residual = 0.0017169, Final residual = 0.000161017, No Iterations 1
smoothSolver:  Solving for Uy, Initial residual = 0.00803975, Final residual = 0.000803046, No Iterations 1
smoothSolver:  Solving for Uz, Initial residual = 0.00626897, Final residual = 0.000124228, No Iterations 2
DICPCG:  Solving for p, Initial residual = 0.0576886, Final residual = 0.00552006, No Iterations 7
time step continuity errors : sum local = 4.60687, global = 0.113764, cumulative = -0.587109
smoothSolver:  Solving for omega, Initial residual = 0.0018504, Final residual = 0.000180608, No Iterations 1
smoothSolver:  Solving for k, Initial residual = 0.0721717, Final residual = 0.00149282, No Iterations 2
ExecutionTime = 2.00643 s  ClockTime = 2 s

Time = 314s

smoothSolver:  Solving for Ux, Initial residual = 0.00174791, Final residual = 0.000164196, No Iterations 1
smoothSolver:  Solving for Uy, Initial residual = 0.00820352, Final residual = 0.000149507, No Iterations 2
smoothSolver:  Solving for Uz, Initial residual = 0.00618982, Final residual = 0.000122693, No Iterations 2
DICPCG:  Solving for p, Initial residual = 0.0600156, Final residual = 0.00583212, No Iterations 7
time step continuity errors : sum local = 4.89994, global = 0.184302, cumulative = -0.402807
smoothSolver:  Solving for omega, Initial residual = 0.00186121, Final residual = 3.16428e-05, No Iterations 2
smoothSolver:  Solving for k, Initial residual = 0.0684131, Final residual = 0.00140734, No Iterations 2
ExecutionTime = 2.10019 s  ClockTime = 2 s

Time = 315s

smoothSolver:  Solving for Ux, Initial residual = 0.00179661, Final residual = 0.000168894, No Iterations 1
smoothSolver:  Solving for Uy, Initial residual = 0.00822759, Final residual = 0.00081199, No Iterations 1
smoothSolver:  Solving for Uz, Initial residual = 0.00620912, Final residual = 0.000124188, No Iterations 2
DICPCG:  Solving for p, Initial residual = 0.0607535, Final residual = 0.00573138, No Iterations 9
time step continuity errors : sum local = 4.80665, global = 0.311356, cumulative = -0.0914508
smoothSolver:  Solving for omega, Initial residual = 0.00185218, Final residual = 0.000184543, No Iterations 1
smoothSolver:  Solving for k, Initial residual = 0.115499, Final residual = 0.0109695, No Iterations 1
ExecutionTime = 2.1882 s  ClockTime = 2 s

Time = 316s

smoothSolver:  Solving for Ux, Initial residual = 0.00185372, Final residual = 0.000175731, No Iterations 1
smoothSolver:  Solving for Uy, Initial residual = 0.00837096, Final residual = 0.000831701, No Iterations 1
smoothSolver:  Solving for Uz, Initial residual = 0.00621666, Final residual = 0.000125772, No Iterations 2
DICPCG:  Solving for p, Initial residual = 0.0623093, Final residual = 0.0061586, No Iterations 5
time step continuity errors : sum local = 5.16945, global = 0.251268, cumulative = 0.159817
smoothSolver:  Solving for omega, Initial residual = 0.00188524, Final residual = 3.26185e-05, No Iterations 2
smoothSolver:  Solving for k, Initial residual = 0.11648, Final residual = 0.0116123, No Iterations 1
ExecutionTime = 2.27335 s  ClockTime = 2 s

Time = 317s

smoothSolver:  Solving for Ux, Initial residual = 0.00189132, Final residual = 0.000179246, No Iterations 1
smoothSolver:  Solving for Uy, Initial residual = 0.00851388, Final residual = 0.000845998, No Iterations 1
smoothSolver:  Solving for Uz, Initial residual = 0.00619545, Final residual = 0.000126154, No Iterations 2
DICPCG:  Solving for p, Initial residual = 0.0628859, Final residual = 0.00526563, No Iterations 6
time step continuity errors : sum local = 4.524, global = 0.352466, cumulative = 0.512283
smoothSolver:  Solving for omega, Initial residual = 0.00192802, Final residual = 0.00018938, No Iterations 1
smoothSolver:  Solving for k, Initial residual = 0.0998593, Final residual = 0.00921413, No Iterations 1
ExecutionTime = 2.3555 s  ClockTime = 2 s

Time = 318s

smoothSolver:  Solving for Ux, Initial residual = 0.00193177, Final residual = 0.000183214, No Iterations 1
smoothSolver:  Solving for Uy, Initial residual = 0.0086868, Final residual = 0.000867574, No Iterations 1
smoothSolver:  Solving for Uz, Initial residual = 0.00615888, Final residual = 0.000122623, No Iterations 2
DICPCG:  Solving for p, Initial residual = 0.063451, Final residual = 0.00569207, No Iterations 6
time step continuity errors : sum local = 4.88152, global = 0.224126, cumulative = 0.736409
smoothSolver:  Solving for omega, Initial residual = 0.00199418, Final residual = 0.000198702, No Iterations 1
smoothSolver:  Solving for k, Initial residual = 0.0740311, Final residual = 0.00141804, No Iterations 2
ExecutionTime = 2.44666 s  ClockTime = 2 s

Time = 319s

smoothSolver:  Solving for Ux, Initial residual = 0.00196101, Final residual = 0.000186273, No Iterations 1
smoothSolver:  Solving for Uy, Initial residual = 0.00888726, Final residual = 0.000163713, No Iterations 2
smoothSolver:  Solving for Uz, Initial residual = 0.00614643, Final residual = 0.000610822, No Iterations 1
DICPCG:  Solving for p, Initial residual = 0.0648263, Final residual = 0.00605274, No Iterations 6
time step continuity errors : sum local = 5.06818, global = 0.00389574, cumulative = 0.740305
smoothSolver:  Solving for omega, Initial residual = 0.00205555, Final residual = 3.5526e-05, No Iterations 2
smoothSolver:  Solving for k, Initial residual = 0.0711975, Final residual = 0.00141564, No Iterations 2
ExecutionTime = 2.53425 s  ClockTime = 3 s

Time = 320s

smoothSolver:  Solving for Ux, Initial residual = 0.00199176, Final residual = 0.000189281, No Iterations 1
smoothSolver:  Solving for Uy, Initial residual = 0.00892779, Final residual = 0.000162905, No Iterations 2
smoothSolver:  Solving for Uz, Initial residual = 0.00627285, Final residual = 0.000127312, No Iterations 2
DICPCG:  Solving for p, Initial residual = 0.0653233, Final residual = 0.00650444, No Iterations 6
time step continuity errors : sum local = 5.46989, global = 0.00316723, cumulative = 0.743472
smoothSolver:  Solving for omega, Initial residual = 0.00209509, Final residual = 0.000203795, No Iterations 1
smoothSolver:  Solving for k, Initial residual = 0.0740275, Final residual = 0.00156896, No Iterations 2
ExecutionTime = 2.62525 s  ClockTime = 3 s

Time = 321s

smoothSolver:  Solving for Ux, Initial residual = 0.00202297, Final residual = 0.000192676, No Iterations 1
smoothSolver:  Solving for Uy, Initial residual = 0.00905846, Final residual = 0.000905407, No Iterations 1
smoothSolver:  Solving for Uz, Initial residual = 0.0062814, Final residual = 0.000127021, No Iterations 2
DICPCG:  Solving for p, Initial residual = 0.0656491, Final residual = 0.00646102, No Iterations 9
time step continuity errors : sum local = 5.41498, global = -0.0260017, cumulative = 0.717471
smoothSolver:  Solving for omega, Initial residual = 0.00216423, Final residual = 0.000212338, No Iterations 1
smoothSolver:  Solving for k, Initial residual = 0.115159, Final residual = 0.0021209, No Iterations 2
ExecutionTime = 2.71381 s  ClockTime = 3 s

Time = 322s

smoothSolver:  Solving for Ux, Initial residual = 0.0020535, Final residual = 0.000195965, No Iterations 1
smoothSolver:  Solving for Uy, Initial residual = 0.00937622, Final residual = 0.00017476, No Iterations 2
smoothSolver:  Solving for Uz, Initial residual = 0.00624414, Final residual = 0.000618497, No Iterations 1
DICPCG:  Solving for p, Initial residual = 0.0641917, Final residual = 0.0056106, No Iterations 12
time step continuity errors : sum local = 4.7269, global = -0.224081, cumulative = 0.493389
smoothSolver:  Solving for omega, Initial residual = 0.0022332, Final residual = 0.000217049, No Iterations 1
smoothSolver:  Solving for k, Initial residual = 0.104981, Final residual = 0.0102003, No Iterations 1
ExecutionTime = 2.80509 s  ClockTime = 3 s

Time = 323s

smoothSolver:  Solving for Ux, Initial residual = 0.00209668, Final residual = 0.000200227, No Iterations 1
smoothSolver:  Solving for Uy, Initial residual = 0.0095076, Final residual = 0.000175, No Iterations 2
smoothSolver:  Solving for Uz, Initial residual = 0.00646439, Final residual = 0.00063231, No Iterations 1
DICPCG:  Solving for p, Initial residual = 0.063664, Final residual = 0.00504252, No Iterations 5
time step continuity errors : sum local = 4.30873, global = 0.508975, cumulative = 1.00236
smoothSolver:  Solving for omega, Initial residual = 0.00223049, Final residual = 0.000217153, No Iterations 1
smoothSolver:  Solving for k, Initial residual = 0.0929704, Final residual = 0.00902261, No Iterations 1
ExecutionTime = 2.89412 s  ClockTime = 3 s

Time = 324s

smoothSolver:  Solving for Ux, Initial residual = 0.0020648, Final residual = 0.000194861, No Iterations 1
smoothSolver:  Solving for Uy, Initial residual = 0.00952413, Final residual = 0.000173271, No Iterations 2
smoothSolver:  Solving for Uz, Initial residual = 0.00646271, Final residual = 0.000636795, No Iterations 1
DICPCG:  Solving for p, Initial residual = 0.061469, Final residual = 0.00596383, No Iterations 5
time step continuity errors : sum local = 5.19288, global = 1.03839, cumulative = 2.04076
smoothSolver:  Solving for omega, Initial residual = 0.00225367, Final residual = 0.000217841, No Iterations 1
smoothSolver:  Solving for k, Initial residual = 0.0828936, Final residual = 0.00152622, No Iterations 2
ExecutionTime = 2.98317 s  ClockTime = 3 s

Time = 325s

smoothSolver:  Solving for Ux, Initial residual = 0.00204094, Final residual = 0.00019054, No Iterations 1
smoothSolver:  Solving for Uy, Initial residual = 0.00961235, Final residual = 0.000174651, No Iterations 2
smoothSolver:  Solving for Uz, Initial residual = 0.00641687, Final residual = 0.000623867, No Iterations 1
DICPCG:  Solving for p, Initial residual = 0.0616409, Final residual = 0.00597777, No Iterations 8
time step continuity errors : sum local = 5.21401, global = 1.39985, cumulative = 3.4406
smoothSolver:  Solving for omega, Initial residual = 0.00225638, Final residual = 0.000217065, No Iterations 1
smoothSolver:  Solving for k, Initial residual = 0.101334, Final residual = 0.00185428, No Iterations 2
ExecutionTime = 3.07884 s  ClockTime = 3 s

Time = 326s

smoothSolver:  Solving for Ux, Initial residual = 0.00204324, Final residual = 0.000191496, No Iterations 1
smoothSolver:  Solving for Uy, Initial residual = 0.00974597, Final residual = 0.00018158, No Iterations 2
smoothSolver:  Solving for Uz, Initial residual = 0.00642486, Final residual = 0.000608759, No Iterations 1
DICPCG:  Solving for p, Initial residual = 0.0612264, Final residual = 0.00534159, No Iterations 17
time step continuity errors : sum local = 4.70229, global = 1.00868, cumulative = 4.44928
smoothSolver:  Solving for omega, Initial residual = 0.00221659, Final residual = 0.000214292, No Iterations 1
smoothSolver:  Solving for k, Initial residual = 0.106865, Final residual = 0.0101597, No Iterations 1
ExecutionTime = 3.18104 s  ClockTime = 3 s

Time = 327s

smoothSolver:  Solving for Ux, Initial residual = 0.00210555, Final residual = 0.000201991, No Iterations 1
smoothSolver:  Solving for Uy, Initial residual = 0.00991215, Final residual = 0.000190637, No Iterations 2
smoothSolver:  Solving for Uz, Initial residual = 0.00664353, Final residual = 0.00060974, No Iterations 1
DICPCG:  Solving for p, Initial residual = 0.0596459, Final residual = 0.00555204, No Iterations 5
time step continuity errors : sum local = 4.94571, global = 1.48779, cumulative = 5.93707
smoothSolver:  Solving for omega, Initial residual = 0.00220345, Final residual = 0.000212659, No Iterations 1
smoothSolver:  Solving for k, Initial residual = 0.0923727, Final residual = 0.00869579, No Iterations 1
ExecutionTime = 3.27438 s  ClockTime = 3 s

Time = 328s

smoothSolver:  Solving for Ux, Initial residual = 0.00206027, Final residual = 0.000195677, No Iterations 1
smoothSolver:  Solving for Uy, Initial residual = 0.00976159, Final residual = 0.000187993, No Iterations 2
smoothSolver:  Solving for Uz, Initial residual = 0.00650286, Final residual = 0.000588115, No Iterations 1
DICPCG:  Solving for p, Initial residual = 0.0618157, Final residual = 0.00584678, No Iterations 6
time step continuity errors : sum local = 4.96394, global = 1.18546, cumulative = 7.12253
smoothSolver:  Solving for omega, Initial residual = 0.00216856, Final residual = 0.00021088, No Iterations 1
smoothSolver:  Solving for k, Initial residual = 0.110627, Final residual = 0.0101593, No Iterations 1
ExecutionTime = 3.36849 s  ClockTime = 3 s

Time = 329s

smoothSolver:  Solving for Ux, Initial residual = 0.00201152, Final residual = 0.000187865, No Iterations 1
smoothSolver:  Solving for Uy, Initial residual = 0.00962282, Final residual = 0.000186256, No Iterations 2
smoothSolver:  Solving for Uz, Initial residual = 0.00637624, Final residual = 0.000565063, No Iterations 1
DICPCG:  Solving for p, Initial residual = 0.0588308, Final residual = 0.00559738, No Iterations 12
time step continuity errors : sum local = 4.94145, global = 0.999894, cumulative = 8.12243
smoothSolver:  Solving for omega, Initial residual = 0.00213331, Final residual = 0.000209725, No Iterations 1
smoothSolver:  Solving for k, Initial residual = 0.11197, Final residual = 0.00214215, No Iterations 2
ExecutionTime = 3.47545 s  ClockTime = 4 s

Time = 330s

smoothSolver:  Solving for Ux, Initial residual = 0.00189167, Final residual = 0.000172065, No Iterations 1
smoothSolver:  Solving for Uy, Initial residual = 0.00932022, Final residual = 0.000179344, No Iterations 2
smoothSolver:  Solving for Uz, Initial residual = 0.00626501, Final residual = 0.000557233, No Iterations 1
DICPCG:  Solving for p, Initial residual = 0.0593339, Final residual = 0.00549105, No Iterations 7
time step continuity errors : sum local = 4.77419, global = 0.184597, cumulative = 8.30703
smoothSolver:  Solving for omega, Initial residual = 0.00210786, Final residual = 0.000207239, No Iterations 1
smoothSolver:  Solving for k, Initial residual = 0.11982, Final residual = 0.00210287, No Iterations 2
ExecutionTime = 3.56317 s  ClockTime = 4 s

Time = 331s

smoothSolver:  Solving for Ux, Initial residual = 0.00180732, Final residual = 0.000161473, No Iterations 1
smoothSolver:  Solving for Uy, Initial residual = 0.00909436, Final residual = 0.000174836, No Iterations 2
smoothSolver:  Solving for Uz, Initial residual = 0.00620109, Final residual = 0.000552163, No Iterations 1
DICPCG:  Solving for p, Initial residual = 0.0600579, Final residual = 0.00550518, No Iterations 14
time step continuity errors : sum local = 4.65423, global = -0.214659, cumulative = 8.09237
smoothSolver:  Solving for omega, Initial residual = 0.00207823, Final residual = 0.000204266, No Iterations 1
smoothSolver:  Solving for k, Initial residual = 0.119509, Final residual = 0.00214632, No Iterations 2
ExecutionTime = 3.66559 s  ClockTime = 4 s

Time = 332s

smoothSolver:  Solving for Ux, Initial residual = 0.00169122, Final residual = 0.000146315, No Iterations 1
smoothSolver:  Solving for Uy, Initial residual = 0.00893854, Final residual = 0.00016895, No Iterations 2
smoothSolver:  Solving for Uz, Initial residual = 0.00603041, Final residual = 0.000546461, No Iterations 1
DICPCG:  Solving for p, Initial residual = 0.0564832, Final residual = 0.0053093, No Iterations 7
time step continuity errors : sum local = 4.71744, global = -1.79074, cumulative = 6.30162
smoothSolver:  Solving for omega, Initial residual = 0.00205976, Final residual = 0.000203971, No Iterations 1
smoothSolver:  Solving for k, Initial residual = 0.10683, Final residual = 0.00198487, No Iterations 2
ExecutionTime = 3.7565 s  ClockTime = 4 s

Time = 333s

smoothSolver:  Solving for Ux, Initial residual = 0.00163743, Final residual = 0.000142395, No Iterations 1
smoothSolver:  Solving for Uy, Initial residual = 0.00896278, Final residual = 0.000169056, No Iterations 2
smoothSolver:  Solving for Uz, Initial residual = 0.00596588, Final residual = 0.000543248, No Iterations 1
DICPCG:  Solving for p, Initial residual = 0.0551421, Final residual = 0.00536282, No Iterations 18
time step continuity errors : sum local = 4.76616, global = -0.697578, cumulative = 5.60404
smoothSolver:  Solving for omega, Initial residual = 0.00200927, Final residual = 3.68534e-05, No Iterations 2
smoothSolver:  Solving for k, Initial residual = 0.111904, Final residual = 0.0104174, No Iterations 1
ExecutionTime = 3.85589 s  ClockTime = 4 s

Time = 334s

smoothSolver:  Solving for Ux, Initial residual = 0.00160828, Final residual = 0.000140651, No Iterations 1
smoothSolver:  Solving for Uy, Initial residual = 0.0091838, Final residual = 0.000171358, No Iterations 2
smoothSolver:  Solving for Uz, Initial residual = 0.00614036, Final residual = 0.000554695, No Iterations 1
DICPCG:  Solving for p, Initial residual = 0.0478314, Final residual = 0.00421004, No Iterations 7
time step continuity errors : sum local = 4.37722, global = -2.02881, cumulative = 3.57523
smoothSolver:  Solving for omega, Initial residual = 0.00192494, Final residual = 3.56994e-05, No Iterations 2
smoothSolver:  Solving for k, Initial residual = 0.0939372, Final residual = 0.00896261, No Iterations 1
ExecutionTime = 3.944 s  ClockTime = 4 s

Time = 335s

smoothSolver:  Solving for Ux, Initial residual = 0.00159478, Final residual = 0.000140218, No Iterations 1
smoothSolver:  Solving for Uy, Initial residual = 0.0091673, Final residual = 0.000169048, No Iterations 2
smoothSolver:  Solving for Uz, Initial residual = 0.00608774, Final residual = 0.000551328, No Iterations 1
DICPCG:  Solving for p, Initial residual = 0.0495723, Final residual = 0.00494641, No Iterations 13
time step continuity errors : sum local = 4.92786, global = -0.837855, cumulative = 2.73738
smoothSolver:  Solving for omega, Initial residual = 0.00194378, Final residual = 3.60936e-05, No Iterations 2
smoothSolver:  Solving for k, Initial residual = 0.102089, Final residual = 0.00865982, No Iterations 1
ExecutionTime = 4.04002 s  ClockTime = 4 s

Time = 336s

smoothSolver:  Solving for Ux, Initial residual = 0.00158302, Final residual = 0.000139873, No Iterations 1
smoothSolver:  Solving for Uy, Initial residual = 0.00916402, Final residual = 0.000170398, No Iterations 2
smoothSolver:  Solving for Uz, Initial residual = 0.00629734, Final residual = 0.000562548, No Iterations 1
DICPCG:  Solving for p, Initial residual = 0.0479703, Final residual = 0.00388208, No Iterations 6
time step continuity errors : sum local = 4.07957, global = -0.827461, cumulative = 1.90992
smoothSolver:  Solving for omega, Initial residual = 0.00194786, Final residual = 3.70131e-05, No Iterations 2
smoothSolver:  Solving for k, Initial residual = 0.0923384, Final residual = 0.00869142, No Iterations 1
ExecutionTime = 4.12896 s  ClockTime = 4 s

Time = 337s

smoothSolver:  Solving for Ux, Initial residual = 0.00159127, Final residual = 0.000141664, No Iterations 1
smoothSolver:  Solving for Uy, Initial residual = 0.00913218, Final residual = 0.000168739, No Iterations 2
smoothSolver:  Solving for Uz, Initial residual = 0.00617976, Final residual = 0.000558596, No Iterations 1
DICPCG:  Solving for p, Initial residual = 0.0490221, Final residual = 0.00484547, No Iterations 6
time step continuity errors : sum local = 5.04788, global = 0.0521859, cumulative = 1.9621
smoothSolver:  Solving for omega, Initial residual = 0.00195969, Final residual = 3.78097e-05, No Iterations 2
smoothSolver:  Solving for k, Initial residual = 0.0772029, Final residual = 0.00162673, No Iterations 2
ExecutionTime = 4.21441 s  ClockTime = 4 s

Time = 338s

smoothSolver:  Solving for Ux, Initial residual = 0.00160624, Final residual = 0.000142446, No Iterations 1
smoothSolver:  Solving for Uy, Initial residual = 0.00917385, Final residual = 0.000167829, No Iterations 2
smoothSolver:  Solving for Uz, Initial residual = 0.00606655, Final residual = 0.000555468, No Iterations 1
DICPCG:  Solving for p, Initial residual = 0.0509229, Final residual = 0.00482564, No Iterations 12
time step continuity errors : sum local = 4.91096, global = 0.875301, cumulative = 2.8374
smoothSolver:  Solving for omega, Initial residual = 0.00196915, Final residual = 3.73935e-05, No Iterations 2
smoothSolver:  Solving for k, Initial residual = 0.104544, Final residual = 0.00995718, No Iterations 1
ExecutionTime = 4.31005 s  ClockTime = 4 s

Time = 339s

smoothSolver:  Solving for Ux, Initial residual = 0.00162451, Final residual = 0.000141546, No Iterations 1
smoothSolver:  Solving for Uy, Initial residual = 0.00932178, Final residual = 0.000169505, No Iterations 2
smoothSolver:  Solving for Uz, Initial residual = 0.0060042, Final residual = 0.000549352, No Iterations 1
DICPCG:  Solving for p, Initial residual = 0.0526471, Final residual = 0.00501052, No Iterations 6
time step continuity errors : sum local = 4.943, global = 1.52103, cumulative = 4.35843
smoothSolver:  Solving for omega, Initial residual = 0.00199505, Final residual = 3.84502e-05, No Iterations 2
smoothSolver:  Solving for k, Initial residual = 0.0902187, Final residual = 0.00160962, No Iterations 2
ExecutionTime = 4.39986 s  ClockTime = 4 s

Time = 340s

smoothSolver:  Solving for Ux, Initial residual = 0.0016306, Final residual = 0.000141463, No Iterations 1
smoothSolver:  Solving for Uy, Initial residual = 0.00927749, Final residual = 0.000167733, No Iterations 2
smoothSolver:  Solving for Uz, Initial residual = 0.00586659, Final residual = 0.000540824, No Iterations 1
DICPCG:  Solving for p, Initial residual = 0.0520209, Final residual = 0.00517547, No Iterations 15
time step continuity errors : sum local = 5.19037, global = 1.22005, cumulative = 5.57848
smoothSolver:  Solving for omega, Initial residual = 0.00200262, Final residual = 3.82284e-05, No Iterations 2
smoothSolver:  Solving for k, Initial residual = 0.11581, Final residual = 0.0108904, No Iterations 1
ExecutionTime = 4.49622 s  ClockTime = 5 s

Time = 341s

smoothSolver:  Solving for Ux, Initial residual = 0.00165615, Final residual = 0.000144337, No Iterations 1
smoothSolver:  Solving for Uy, Initial residual = 0.00941643, Final residual = 0.000173693, No Iterations 2
smoothSolver:  Solving for Uz, Initial residual = 0.0056631, Final residual = 0.000523371, No Iterations 1
DICPCG:  Solving for p, Initial residual = 0.0553041, Final residual = 0.00526461, No Iterations 5
time step continuity errors : sum local = 4.85726, global = 1.76718, cumulative = 7.34566
smoothSolver:  Solving for omega, Initial residual = 0.00201284, Final residual = 3.89294e-05, No Iterations 2
smoothSolver:  Solving for k, Initial residual = 0.112534, Final residual = 0.0100896, No Iterations 1
ExecutionTime = 4.58132 s  ClockTime = 5 s

Time = 342s

smoothSolver:  Solving for Ux, Initial residual = 0.00163445, Final residual = 0.000144205, No Iterations 1
smoothSolver:  Solving for Uy, Initial residual = 0.00928332, Final residual = 0.000174624, No Iterations 2
smoothSolver:  Solving for Uz, Initial residual = 0.0055333, Final residual = 0.000521487, No Iterations 1
DICPCG:  Solving for p, Initial residual = 0.055056, Final residual = 0.00489905, No Iterations 6
time step continuity errors : sum local = 4.53787, global = 1.61618, cumulative = 8.96184
smoothSolver:  Solving for omega, Initial residual = 0.00201615, Final residual = 3.90057e-05, No Iterations 2
smoothSolver:  Solving for k, Initial residual = 0.117505, Final residual = 0.010119, No Iterations 1
ExecutionTime = 4.66874 s  ClockTime = 5 s

Time = 343s

smoothSolver:  Solving for Ux, Initial residual = 0.00161924, Final residual = 0.000144954, No Iterations 1
smoothSolver:  Solving for Uy, Initial residual = 0.00918879, Final residual = 0.00017726, No Iterations 2
smoothSolver:  Solving for Uz, Initial residual = 0.0054686, Final residual = 0.000526204, No Iterations 1
DICPCG:  Solving for p, Initial residual = 0.0575914, Final residual = 0.00505243, No Iterations 7
time step continuity errors : sum local = 4.61374, global = 1.34939, cumulative = 10.3112
smoothSolver:  Solving for omega, Initial residual = 0.00201868, Final residual = 4.00428e-05, No Iterations 2
smoothSolver:  Solving for k, Initial residual = 0.128157, Final residual = 0.0119396, No Iterations 1
ExecutionTime = 4.75816 s  ClockTime = 5 s

Time = 344s

smoothSolver:  Solving for Ux, Initial residual = 0.0016048, Final residual = 0.000144466, No Iterations 1
smoothSolver:  Solving for Uy, Initial residual = 0.00912092, Final residual = 0.000178463, No Iterations 2
smoothSolver:  Solving for Uz, Initial residual = 0.00544219, Final residual = 0.000526032, No Iterations 1
DICPCG:  Solving for p, Initial residual = 0.0577116, Final residual = 0.00557534, No Iterations 9
time step continuity errors : sum local = 5.06275, global = 0.969948, cumulative = 11.2812
smoothSolver:  Solving for omega, Initial residual = 0.00200493, Final residual = 4.14953e-05, No Iterations 2
smoothSolver:  Solving for k, Initial residual = 0.13541, Final residual = 0.00249215, No Iterations 2
ExecutionTime = 4.85142 s  ClockTime = 5 s

Time = 345s

smoothSolver:  Solving for Ux, Initial residual = 0.00158735, Final residual = 0.000143338, No Iterations 1
smoothSolver:  Solving for Uy, Initial residual = 0.00909254, Final residual = 0.000182625, No Iterations 2
smoothSolver:  Solving for Uz, Initial residual = 0.00541729, Final residual = 0.000525271, No Iterations 1
DICPCG:  Solving for p, Initial residual = 0.0578164, Final residual = 0.0057508, No Iterations 5
time step continuity errors : sum local = 5.17143, global = 0.960016, cumulative = 12.2412
smoothSolver:  Solving for omega, Initial residual = 0.00201817, Final residual = 4.43034e-05, No Iterations 2
smoothSolver:  Solving for k, Initial residual = 0.136786, Final residual = 0.0130305, No Iterations 1
ExecutionTime = 4.93613 s  ClockTime = 5 s

Time = 346s

smoothSolver:  Solving for Ux, Initial residual = 0.00156776, Final residual = 0.000142974, No Iterations 1
smoothSolver:  Solving for Uy, Initial residual = 0.00900607, Final residual = 0.000184121, No Iterations 2
smoothSolver:  Solving for Uz, Initial residual = 0.00536286, Final residual = 0.00052177, No Iterations 1
DICPCG:  Solving for p, Initial residual = 0.0567971, Final residual = 0.00553815, No Iterations 12
time step continuity errors : sum local = 5.03039, global = 1.17391, cumulative = 13.4151
smoothSolver:  Solving for omega, Initial residual = 0.00202336, Final residual = 4.57253e-05, No Iterations 2
smoothSolver:  Solving for k, Initial residual = 0.137479, Final residual = 0.0128305, No Iterations 1
ExecutionTime = 5.03141 s  ClockTime = 5 s

Time = 347s

smoothSolver:  Solving for Ux, Initial residual = 0.00158845, Final residual = 0.000147564, No Iterations 1
smoothSolver:  Solving for Uy, Initial residual = 0.00918294, Final residual = 0.000192478, No Iterations 2
smoothSolver:  Solving for Uz, Initial residual = 0.0054118, Final residual = 0.000517059, No Iterations 1
DICPCG:  Solving for p, Initial residual = 0.0573851, Final residual = 0.00525976, No Iterations 5
time step continuity errors : sum local = 4.8285, global = 1.21341, cumulative = 14.6285
smoothSolver:  Solving for omega, Initial residual = 0.00205452, Final residual = 4.8342e-05, No Iterations 2
smoothSolver:  Solving for k, Initial residual = 0.125017, Final residual = 0.0116205, No Iterations 1
ExecutionTime = 5.11769 s  ClockTime = 5 s

Time = 348s

smoothSolver:  Solving for Ux, Initial residual = 0.00158588, Final residual = 0.000148856, No Iterations 1
smoothSolver:  Solving for Uy, Initial residual = 0.00924485, Final residual = 0.000192394, No Iterations 2
smoothSolver:  Solving for Uz, Initial residual = 0.00544044, Final residual = 0.000516384, No Iterations 1
DICPCG:  Solving for p, Initial residual = 0.060176, Final residual = 0.00512326, No Iterations 6
time step continuity errors : sum local = 4.55334, global = 1.34687, cumulative = 15.9754
smoothSolver:  Solving for omega, Initial residual = 0.0020798, Final residual = 5.03675e-05, No Iterations 2
smoothSolver:  Solving for k, Initial residual = 0.148915, Final residual = 0.0127069, No Iterations 1
ExecutionTime = 5.20407 s  ClockTime = 5 s

Time = 349s

smoothSolver:  Solving for Ux, Initial residual = 0.00158452, Final residual = 0.000149983, No Iterations 1
smoothSolver:  Solving for Uy, Initial residual = 0.00935693, Final residual = 0.000193473, No Iterations 2
smoothSolver:  Solving for Uz, Initial residual = 0.00552773, Final residual = 0.000526962, No Iterations 1
DICPCG:  Solving for p, Initial residual = 0.061187, Final residual = 0.00506147, No Iterations 7
time step continuity errors : sum local = 4.43076, global = 1.32131, cumulative = 17.2967
smoothSolver:  Solving for omega, Initial residual = 0.00211575, Final residual = 5.25334e-05, No Iterations 2
smoothSolver:  Solving for k, Initial residual = 0.151582, Final residual = 0.013295, No Iterations 1
ExecutionTime = 5.29191 s  ClockTime = 5 s

Time = 350s

smoothSolver:  Solving for Ux, Initial residual = 0.00158551, Final residual = 0.000151807, No Iterations 1
smoothSolver:  Solving for Uy, Initial residual = 0.00944292, Final residual = 0.000195334, No Iterations 2
smoothSolver:  Solving for Uz, Initial residual = 0.005627, Final residual = 0.000539936, No Iterations 1
DICPCG:  Solving for p, Initial residual = 0.061379, Final residual = 0.0054262, No Iterations 8
time step continuity errors : sum local = 4.77875, global = 1.27576, cumulative = 18.5725
smoothSolver:  Solving for omega, Initial residual = 0.00216586, Final residual = 5.53543e-05, No Iterations 2
smoothSolver:  Solving for k, Initial residual = 0.156204, Final residual = 0.0139787, No Iterations 1
ExecutionTime = 5.60354 s  ClockTime = 6 s

Time = 351s

smoothSolver:  Solving for Ux, Initial residual = 0.00158615, Final residual = 0.000153588, No Iterations 1
smoothSolver:  Solving for Uy, Initial residual = 0.00949821, Final residual = 0.000194733, No Iterations 2
smoothSolver:  Solving for Uz, Initial residual = 0.00573046, Final residual = 0.000558013, No Iterations 1
DICPCG:  Solving for p, Initial residual = 0.064335, Final residual = 0.00642004, No Iterations 5
time step continuity errors : sum local = 5.52966, global = 1.50036, cumulative = 20.0728
smoothSolver:  Solving for omega, Initial residual = 0.0022398, Final residual = 5.81397e-05, No Iterations 2
smoothSolver:  Solving for k, Initial residual = 0.14926, Final residual = 0.0141243, No Iterations 1
ExecutionTime = 5.69146 s  ClockTime = 6 s

Time = 352s

smoothSolver:  Solving for Ux, Initial residual = 0.00160415, Final residual = 0.000157933, No Iterations 1
smoothSolver:  Solving for Uy, Initial residual = 0.00944952, Final residual = 0.000190627, No Iterations 2
smoothSolver:  Solving for Uz, Initial residual = 0.00578644, Final residual = 0.000572504, No Iterations 1
DICPCG:  Solving for p, Initial residual = 0.0642164, Final residual = 0.00595246, No Iterations 11
time step continuity errors : sum local = 5.10937, global = 1.4087, cumulative = 21.4815
smoothSolver:  Solving for omega, Initial residual = 0.00231923, Final residual = 6.13379e-05, No Iterations 2
smoothSolver:  Solving for k, Initial residual = 0.1641, Final residual = 0.0149338, No Iterations 1
ExecutionTime = 5.7907 s  ClockTime = 6 s

Time = 353s

smoothSolver:  Solving for Ux, Initial residual = 0.00163325, Final residual = 0.000162642, No Iterations 1
smoothSolver:  Solving for Uy, Initial residual = 0.00960939, Final residual = 0.000193718, No Iterations 2
smoothSolver:  Solving for Uz, Initial residual = 0.00599821, Final residual = 0.000591526, No Iterations 1
DICPCG:  Solving for p, Initial residual = 0.0665424, Final residual = 0.00586093, No Iterations 5
time step continuity errors : sum local = 4.84385, global = 1.67675, cumulative = 23.1583
smoothSolver:  Solving for omega, Initial residual = 0.00241343, Final residual = 6.36703e-05, No Iterations 2
smoothSolver:  Solving for k, Initial residual = 0.140598, Final residual = 0.0128561, No Iterations 1
ExecutionTime = 5.87573 s  ClockTime = 6 s

Time = 354s

smoothSolver:  Solving for Ux, Initial residual = 0.00166002, Final residual = 0.000165862, No Iterations 1
smoothSolver:  Solving for Uy, Initial residual = 0.0095942, Final residual = 0.000192697, No Iterations 2
smoothSolver:  Solving for Uz, Initial residual = 0.00609047, Final residual = 0.0001196, No Iterations 2
DICPCG:  Solving for p, Initial residual = 0.0677772, Final residual = 0.006737, No Iterations 6
time step continuity errors : sum local = 5.52577, global = 2.013, cumulative = 25.1713
smoothSolver:  Solving for omega, Initial residual = 0.00257993, Final residual = 6.63545e-05, No Iterations 2
smoothSolver:  Solving for k, Initial residual = 0.164543, Final residual = 0.0152107, No Iterations 1
ExecutionTime = 5.96756 s  ClockTime = 6 s

Time = 355s

smoothSolver:  Solving for Ux, Initial residual = 0.00171039, Final residual = 0.000170807, No Iterations 1
smoothSolver:  Solving for Uy, Initial residual = 0.00969622, Final residual = 0.00019634, No Iterations 2
smoothSolver:  Solving for Uz, Initial residual = 0.00604687, Final residual = 0.000603549, No Iterations 1
DICPCG:  Solving for p, Initial residual = 0.067803, Final residual = 0.00672358, No Iterations 19
time step continuity errors : sum local = 5.49164, global = 0.766456, cumulative = 25.9377
smoothSolver:  Solving for omega, Initial residual = 0.00272657, Final residual = 6.90372e-05, No Iterations 2
smoothSolver:  Solving for k, Initial residual = 0.176964, Final residual = 0.017036, No Iterations 1
ExecutionTime = 6.0661 s  ClockTime = 6 s

Time = 356s

smoothSolver:  Solving for Ux, Initial residual = 0.00177047, Final residual = 3.41604e-05, No Iterations 2
smoothSolver:  Solving for Uy, Initial residual = 0.0101946, Final residual = 0.000219122, No Iterations 2
smoothSolver:  Solving for Uz, Initial residual = 0.00653116, Final residual = 0.000642158, No Iterations 1
DICPCG:  Solving for p, Initial residual = 0.0764908, Final residual = 0.00658601, No Iterations 5
time step continuity errors : sum local = 4.74797, global = 1.48323, cumulative = 27.421
smoothSolver:  Solving for omega, Initial residual = 0.0028493, Final residual = 6.9613e-05, No Iterations 2
smoothSolver:  Solving for k, Initial residual = 0.158252, Final residual = 0.0150136, No Iterations 1
ExecutionTime = 6.15207 s  ClockTime = 6 s

Time = 357s

smoothSolver:  Solving for Ux, Initial residual = 0.00176071, Final residual = 0.000175524, No Iterations 1
smoothSolver:  Solving for Uy, Initial residual = 0.0102482, Final residual = 0.000220363, No Iterations 2
smoothSolver:  Solving for Uz, Initial residual = 0.00648638, Final residual = 0.000648604, No Iterations 1
DICPCG:  Solving for p, Initial residual = 0.0753151, Final residual = 0.00631115, No Iterations 7
time step continuity errors : sum local = 4.62271, global = 1.0684, cumulative = 28.4893
smoothSolver:  Solving for omega, Initial residual = 0.0029532, Final residual = 6.91431e-05, No Iterations 2
smoothSolver:  Solving for k, Initial residual = 0.156714, Final residual = 0.00287536, No Iterations 2
ExecutionTime = 6.24267 s  ClockTime = 6 s

Time = 358s

smoothSolver:  Solving for Ux, Initial residual = 0.00178051, Final residual = 3.35394e-05, No Iterations 2
smoothSolver:  Solving for Uy, Initial residual = 0.0102964, Final residual = 0.000222821, No Iterations 2
smoothSolver:  Solving for Uz, Initial residual = 0.00644248, Final residual = 0.000126788, No Iterations 2
DICPCG:  Solving for p, Initial residual = 0.0752675, Final residual = 0.00671291, No Iterations 7
time step continuity errors : sum local = 4.83091, global = 0.57816, cumulative = 29.0675
smoothSolver:  Solving for omega, Initial residual = 0.00306196, Final residual = 6.9144e-05, No Iterations 2
smoothSolver:  Solving for k, Initial residual = 0.115805, Final residual = 0.00240725, No Iterations 2
ExecutionTime = 6.33543 s  ClockTime = 6 s

Time = 359s

smoothSolver:  Solving for Ux, Initial residual = 0.00176851, Final residual = 3.33943e-05, No Iterations 2
smoothSolver:  Solving for Uy, Initial residual = 0.0104437, Final residual = 0.000229804, No Iterations 2
smoothSolver:  Solving for Uz, Initial residual = 0.00626482, Final residual = 0.000621794, No Iterations 1
DICPCG:  Solving for p, Initial residual = 0.0727932, Final residual = 0.00638816, No Iterations 7
time step continuity errors : sum local = 4.58926, global = 0.103958, cumulative = 29.1715
smoothSolver:  Solving for omega, Initial residual = 0.00313174, Final residual = 6.7797e-05, No Iterations 2
smoothSolver:  Solving for k, Initial residual = 0.0982398, Final residual = 0.00185008, No Iterations 2
ExecutionTime = 6.42627 s  ClockTime = 7 s

Time = 360s

smoothSolver:  Solving for Ux, Initial residual = 0.00172926, Final residual = 3.26842e-05, No Iterations 2
smoothSolver:  Solving for Uy, Initial residual = 0.0104676, Final residual = 0.00023408, No Iterations 2
smoothSolver:  Solving for Uz, Initial residual = 0.00616986, Final residual = 0.00012068, No Iterations 2
DICPCG:  Solving for p, Initial residual = 0.0713621, Final residual = 0.00692177, No Iterations 6
time step continuity errors : sum local = 5.00532, global = -0.336825, cumulative = 28.8346
smoothSolver:  Solving for omega, Initial residual = 0.00320174, Final residual = 6.66114e-05, No Iterations 2
smoothSolver:  Solving for k, Initial residual = 0.151482, Final residual = 0.0136539, No Iterations 1
ExecutionTime = 6.51994 s  ClockTime = 7 s

Time = 361s

smoothSolver:  Solving for Ux, Initial residual = 0.00169844, Final residual = 3.24047e-05, No Iterations 2
smoothSolver:  Solving for Uy, Initial residual = 0.0104466, Final residual = 0.000237797, No Iterations 2
smoothSolver:  Solving for Uz, Initial residual = 0.00591026, Final residual = 0.000114955, No Iterations 2
DICPCG:  Solving for p, Initial residual = 0.0698232, Final residual = 0.00666175, No Iterations 7
time step continuity errors : sum local = 4.87433, global = -0.76477, cumulative = 28.0699
smoothSolver:  Solving for omega, Initial residual = 0.00323404, Final residual = 6.47343e-05, No Iterations 2
smoothSolver:  Solving for k, Initial residual = 0.123059, Final residual = 0.0119711, No Iterations 1
ExecutionTime = 6.617 s  ClockTime = 7 s

Time = 362s

smoothSolver:  Solving for Ux, Initial residual = 0.00168104, Final residual = 3.252e-05, No Iterations 2
smoothSolver:  Solving for Uy, Initial residual = 0.0104168, Final residual = 0.000242203, No Iterations 2
smoothSolver:  Solving for Uz, Initial residual = 0.00568982, Final residual = 0.000110217, No Iterations 2
DICPCG:  Solving for p, Initial residual = 0.0692043, Final residual = 0.00655747, No Iterations 11
time step continuity errors : sum local = 4.82003, global = -0.790148, cumulative = 27.2797
smoothSolver:  Solving for omega, Initial residual = 0.00324929, Final residual = 6.32349e-05, No Iterations 2
smoothSolver:  Solving for k, Initial residual = 0.133706, Final residual = 0.00241826, No Iterations 2
ExecutionTime = 6.72175 s  ClockTime = 7 s

Time = 363s

smoothSolver:  Solving for Ux, Initial residual = 0.00168271, Final residual = 3.29821e-05, No Iterations 2
smoothSolver:  Solving for Uy, Initial residual = 0.0104164, Final residual = 0.000249438, No Iterations 2
smoothSolver:  Solving for Uz, Initial residual = 0.00563393, Final residual = 0.000110199, No Iterations 2
DICPCG:  Solving for p, Initial residual = 0.0674635, Final residual = 0.0056583, No Iterations 5
time step continuity errors : sum local = 4.25357, global = -0.802595, cumulative = 26.4771
smoothSolver:  Solving for omega, Initial residual = 0.00325291, Final residual = 6.13364e-05, No Iterations 2
smoothSolver:  Solving for k, Initial residual = 0.114899, Final residual = 0.00220776, No Iterations 2
ExecutionTime = 6.81776 s  ClockTime = 7 s

Time = 364s

smoothSolver:  Solving for Ux, Initial residual = 0.00166481, Final residual = 3.29923e-05, No Iterations 2
smoothSolver:  Solving for Uy, Initial residual = 0.0102459, Final residual = 0.000245157, No Iterations 2
smoothSolver:  Solving for Uz, Initial residual = 0.00556812, Final residual = 0.000110842, No Iterations 2
DICPCG:  Solving for p, Initial residual = 0.0657399, Final residual = 0.00622384, No Iterations 6
time step continuity errors : sum local = 4.69016, global = -0.307912, cumulative = 26.1692
smoothSolver:  Solving for omega, Initial residual = 0.00325091, Final residual = 5.8621e-05, No Iterations 2
smoothSolver:  Solving for k, Initial residual = 0.108781, Final residual = 0.00198649, No Iterations 2
ExecutionTime = 6.92312 s  ClockTime = 7 s

Time = 365s

smoothSolver:  Solving for Ux, Initial residual = 0.00165417, Final residual = 3.31969e-05, No Iterations 2
smoothSolver:  Solving for Uy, Initial residual = 0.0101308, Final residual = 0.000241348, No Iterations 2
smoothSolver:  Solving for Uz, Initial residual = 0.00557791, Final residual = 0.000114089, No Iterations 2
DICPCG:  Solving for p, Initial residual = 0.0643449, Final residual = 0.00628534, No Iterations 8
time step continuity errors : sum local = 4.73949, global = 0.389771, cumulative = 26.559
smoothSolver:  Solving for omega, Initial residual = 0.00324729, Final residual = 0.000315227, No Iterations 1
smoothSolver:  Solving for k, Initial residual = 0.104736, Final residual = 0.00193899, No Iterations 2
ExecutionTime = 7.03322 s  ClockTime = 7 s

Time = 366s

smoothSolver:  Solving for Ux, Initial residual = 0.00164127, Final residual = 3.34324e-05, No Iterations 2
smoothSolver:  Solving for Uy, Initial residual = 0.0100262, Final residual = 0.00023827, No Iterations 2
smoothSolver:  Solving for Uz, Initial residual = 0.00565562, Final residual = 0.000120372, No Iterations 2
DICPCG:  Solving for p, Initial residual = 0.0630282, Final residual = 0.00629301, No Iterations 6
time step continuity errors : sum local = 4.75399, global = 1.00696, cumulative = 27.566
smoothSolver:  Solving for omega, Initial residual = 0.00329969, Final residual = 0.000320607, No Iterations 1
smoothSolver:  Solving for k, Initial residual = 0.0909974, Final residual = 0.0016842, No Iterations 2
ExecutionTime = 7.13252 s  ClockTime = 7 s

Time = 367s

smoothSolver:  Solving for Ux, Initial residual = 0.00161327, Final residual = 3.35453e-05, No Iterations 2
smoothSolver:  Solving for Uy, Initial residual = 0.0098921, Final residual = 0.000235046, No Iterations 2
smoothSolver:  Solving for Uz, Initial residual = 0.00562324, Final residual = 0.000124674, No Iterations 2
DICPCG:  Solving for p, Initial residual = 0.0636578, Final residual = 0.00584267, No Iterations 11
time step continuity errors : sum local = 4.34149, global = 1.01303, cumulative = 28.579
smoothSolver:  Solving for omega, Initial residual = 0.00334183, Final residual = 0.000323298, No Iterations 1
smoothSolver:  Solving for k, Initial residual = 0.0934865, Final residual = 0.00173016, No Iterations 2
ExecutionTime = 7.2403 s  ClockTime = 7 s

Time = 368s

smoothSolver:  Solving for Ux, Initial residual = 0.00159862, Final residual = 3.38256e-05, No Iterations 2
smoothSolver:  Solving for Uy, Initial residual = 0.0097503, Final residual = 0.000232009, No Iterations 2
smoothSolver:  Solving for Uz, Initial residual = 0.00564262, Final residual = 0.000129401, No Iterations 2
DICPCG:  Solving for p, Initial residual = 0.0661314, Final residual = 0.00592853, No Iterations 5
time step continuity errors : sum local = 4.22439, global = 1.63606, cumulative = 30.215
smoothSolver:  Solving for omega, Initial residual = 0.00336527, Final residual = 0.000329781, No Iterations 1
smoothSolver:  Solving for k, Initial residual = 0.0947238, Final residual = 0.00173678, No Iterations 2
ExecutionTime = 7.34101 s  ClockTime = 7 s

Time = 369s

smoothSolver:  Solving for Ux, Initial residual = 0.00157774, Final residual = 3.4942e-05, No Iterations 2
smoothSolver:  Solving for Uy, Initial residual = 0.00960737, Final residual = 0.000229666, No Iterations 2
smoothSolver:  Solving for Uz, Initial residual = 0.0056501, Final residual = 0.000135972, No Iterations 2
DICPCG:  Solving for p, Initial residual = 0.0653773, Final residual = 0.00606605, No Iterations 6
time step continuity errors : sum local = 4.39446, global = 1.65789, cumulative = 31.8729
smoothSolver:  Solving for omega, Initial residual = 0.00339148, Final residual = 0.000336732, No Iterations 1
smoothSolver:  Solving for k, Initial residual = 0.0971713, Final residual = 0.00931098, No Iterations 1
ExecutionTime = 7.43735 s  ClockTime = 8 s

Time = 370s

smoothSolver:  Solving for Ux, Initial residual = 0.00157018, Final residual = 3.64377e-05, No Iterations 2
smoothSolver:  Solving for Uy, Initial residual = 0.00950696, Final residual = 0.000228029, No Iterations 2
smoothSolver:  Solving for Uz, Initial residual = 0.00565597, Final residual = 0.000141451, No Iterations 2
DICPCG:  Solving for p, Initial residual = 0.0635917, Final residual = 0.00585908, No Iterations 7
time step continuity errors : sum local = 4.31559, global = 1.425, cumulative = 33.2979
smoothSolver:  Solving for omega, Initial residual = 0.0034245, Final residual = 5.88269e-05, No Iterations 2
smoothSolver:  Solving for k, Initial residual = 0.103229, Final residual = 0.0100484, No Iterations 1
ExecutionTime = 7.53883 s  ClockTime = 8 s

Time = 371s

smoothSolver:  Solving for Ux, Initial residual = 0.00158997, Final residual = 3.78616e-05, No Iterations 2
smoothSolver:  Solving for Uy, Initial residual = 0.00946905, Final residual = 0.00022913, No Iterations 2
smoothSolver:  Solving for Uz, Initial residual = 0.00564777, Final residual = 0.000145084, No Iterations 2
DICPCG:  Solving for p, Initial residual = 0.0633009, Final residual = 0.00625409, No Iterations 6
time step continuity errors : sum local = 4.57003, global = 1.01843, cumulative = 34.3164
smoothSolver:  Solving for omega, Initial residual = 0.0033853, Final residual = 0.000334683, No Iterations 1
smoothSolver:  Solving for k, Initial residual = 0.0929346, Final residual = 0.00905025, No Iterations 1
ExecutionTime = 7.63058 s  ClockTime = 8 s

Time = 372s

smoothSolver:  Solving for Ux, Initial residual = 0.00162315, Final residual = 3.86785e-05, No Iterations 2
smoothSolver:  Solving for Uy, Initial residual = 0.00945745, Final residual = 0.000231654, No Iterations 2
smoothSolver:  Solving for Uz, Initial residual = 0.00563629, Final residual = 0.000145407, No Iterations 2
DICPCG:  Solving for p, Initial residual = 0.0646375, Final residual = 0.00584918, No Iterations 7
time step continuity errors : sum local = 4.21172, global = 0.293287, cumulative = 34.6097
smoothSolver:  Solving for omega, Initial residual = 0.00342844, Final residual = 0.000337884, No Iterations 1
smoothSolver:  Solving for k, Initial residual = 0.0929362, Final residual = 0.00892741, No Iterations 1
ExecutionTime = 7.7214 s  ClockTime = 8 s

Time = 373s

smoothSolver:  Solving for Ux, Initial residual = 0.00166602, Final residual = 3.91988e-05, No Iterations 2
smoothSolver:  Solving for Uy, Initial residual = 0.00944521, Final residual = 0.000233454, No Iterations 2
smoothSolver:  Solving for Uz, Initial residual = 0.00565183, Final residual = 0.000143333, No Iterations 2
DICPCG:  Solving for p, Initial residual = 0.0633458, Final residual = 0.0063035, No Iterations 10
time step continuity errors : sum local = 4.53078, global = -0.656769, cumulative = 33.9529
smoothSolver:  Solving for omega, Initial residual = 0.00343463, Final residual = 0.000334916, No Iterations 1
smoothSolver:  Solving for k, Initial residual = 0.101818, Final residual = 0.00213274, No Iterations 2
ExecutionTime = 7.82111 s  ClockTime = 8 s

Time = 374s

smoothSolver:  Solving for Ux, Initial residual = 0.00169648, Final residual = 3.88973e-05, No Iterations 2
smoothSolver:  Solving for Uy, Initial residual = 0.0093792, Final residual = 0.00023253, No Iterations 2
smoothSolver:  Solving for Uz, Initial residual = 0.00567574, Final residual = 0.000140199, No Iterations 2
DICPCG:  Solving for p, Initial residual = 0.0622027, Final residual = 0.00607883, No Iterations 14
time step continuity errors : sum local = 4.4691, global = -0.914672, cumulative = 33.0382
smoothSolver:  Solving for omega, Initial residual = 0.0034631, Final residual = 0.000328291, No Iterations 1
smoothSolver:  Solving for k, Initial residual = 0.108951, Final residual = 0.00997792, No Iterations 1
ExecutionTime = 7.91525 s  ClockTime = 8 s

Time = 375s

smoothSolver:  Solving for Ux, Initial residual = 0.0017342, Final residual = 3.91501e-05, No Iterations 2
smoothSolver:  Solving for Uy, Initial residual = 0.00925108, Final residual = 0.000226816, No Iterations 2
smoothSolver:  Solving for Uz, Initial residual = 0.00577582, Final residual = 0.00014092, No Iterations 2
DICPCG:  Solving for p, Initial residual = 0.060898, Final residual = 0.00590242, No Iterations 5
time step continuity errors : sum local = 4.48864, global = -1.91842, cumulative = 31.1198
smoothSolver:  Solving for omega, Initial residual = 0.0034105, Final residual = 0.000315548, No Iterations 1
smoothSolver:  Solving for k, Initial residual = 0.104604, Final residual = 0.00192596, No Iterations 2
ExecutionTime = 8.0061 s  ClockTime = 8 s

Time = 376s

smoothSolver:  Solving for Ux, Initial residual = 0.00172912, Final residual = 3.8986e-05, No Iterations 2
smoothSolver:  Solving for Uy, Initial residual = 0.0091068, Final residual = 0.000222432, No Iterations 2
smoothSolver:  Solving for Uz, Initial residual = 0.00576012, Final residual = 0.000143757, No Iterations 2
DICPCG:  Solving for p, Initial residual = 0.0597464, Final residual = 0.00584166, No Iterations 18
time step continuity errors : sum local = 4.49871, global = -0.0973667, cumulative = 31.0224
smoothSolver:  Solving for omega, Initial residual = 0.00335175, Final residual = 0.000300394, No Iterations 1
smoothSolver:  Solving for k, Initial residual = 0.0932258, Final residual = 0.00810149, No Iterations 1
ExecutionTime = 8.10033 s  ClockTime = 8 s

Time = 377s

smoothSolver:  Solving for Ux, Initial residual = 0.00171725, Final residual = 3.81009e-05, No Iterations 2
smoothSolver:  Solving for Uy, Initial residual = 0.00896924, Final residual = 0.000217834, No Iterations 2
smoothSolver:  Solving for Uz, Initial residual = 0.00584389, Final residual = 0.000147513, No Iterations 2
DICPCG:  Solving for p, Initial residual = 0.0535163, Final residual = 0.00470146, No Iterations 6
time step continuity errors : sum local = 4.01938, global = -0.781155, cumulative = 30.2413
smoothSolver:  Solving for omega, Initial residual = 0.00326105, Final residual = 0.000281417, No Iterations 1
smoothSolver:  Solving for k, Initial residual = 0.083897, Final residual = 0.00776865, No Iterations 1
ExecutionTime = 8.18727 s  ClockTime = 8 s

Time = 378s

smoothSolver:  Solving for Ux, Initial residual = 0.00170237, Final residual = 3.77339e-05, No Iterations 2
smoothSolver:  Solving for Uy, Initial residual = 0.00880815, Final residual = 0.000214782, No Iterations 2
smoothSolver:  Solving for Uz, Initial residual = 0.00585853, Final residual = 0.000148755, No Iterations 2
DICPCG:  Solving for p, Initial residual = 0.0531662, Final residual = 0.0044247, No Iterations 7
time step continuity errors : sum local = 3.79673, global = -0.110631, cumulative = 30.1306
smoothSolver:  Solving for omega, Initial residual = 0.00314214, Final residual = 0.000262633, No Iterations 1
smoothSolver:  Solving for k, Initial residual = 0.0826915, Final residual = 0.00752911, No Iterations 1
ExecutionTime = 8.27743 s  ClockTime = 8 s

Time = 379s

smoothSolver:  Solving for Ux, Initial residual = 0.00169121, Final residual = 3.73729e-05, No Iterations 2
smoothSolver:  Solving for Uy, Initial residual = 0.00870902, Final residual = 0.000213461, No Iterations 2
smoothSolver:  Solving for Uz, Initial residual = 0.0058881, Final residual = 0.000149657, No Iterations 2
DICPCG:  Solving for p, Initial residual = 0.0541849, Final residual = 0.00484452, No Iterations 7
time step continuity errors : sum local = 4.1378, global = 0.285501, cumulative = 30.4161
smoothSolver:  Solving for omega, Initial residual = 0.00299841, Final residual = 0.000245376, No Iterations 1
smoothSolver:  Solving for k, Initial residual = 0.0606549, Final residual = 0.00107783, No Iterations 2
ExecutionTime = 8.3713 s  ClockTime = 8 s

Time = 380s

smoothSolver:  Solving for Ux, Initial residual = 0.00168304, Final residual = 3.72347e-05, No Iterations 2
smoothSolver:  Solving for Uy, Initial residual = 0.00866472, Final residual = 0.000214498, No Iterations 2
smoothSolver:  Solving for Uz, Initial residual = 0.00591105, Final residual = 0.000150929, No Iterations 2
DICPCG:  Solving for p, Initial residual = 0.0552139, Final residual = 0.00459866, No Iterations 7
time step continuity errors : sum local = 4.04779, global = 0.663454, cumulative = 31.0796
smoothSolver:  Solving for omega, Initial residual = 0.00285877, Final residual = 0.000231007, No Iterations 1
smoothSolver:  Solving for k, Initial residual = 0.0578609, Final residual = 0.00564729, No Iterations 1
ExecutionTime = 8.46298 s  ClockTime = 9 s

Time = 381s

smoothSolver:  Solving for Ux, Initial residual = 0.00167465, Final residual = 3.70088e-05, No Iterations 2
smoothSolver:  Solving for Uy, Initial residual = 0.0086487, Final residual = 0.000216299, No Iterations 2
smoothSolver:  Solving for Uz, Initial residual = 0.00590764, Final residual = 0.000151247, No Iterations 2
DICPCG:  Solving for p, Initial residual = 0.0566623, Final residual = 0.00491186, No Iterations 7
time step continuity errors : sum local = 4.20654, global = 0.879548, cumulative = 31.9591
smoothSolver:  Solving for omega, Initial residual = 0.00272871, Final residual = 0.000217744, No Iterations 1
smoothSolver:  Solving for k, Initial residual = 0.0622203, Final residual = 0.00112867, No Iterations 2
ExecutionTime = 8.55953 s  ClockTime = 9 s

Time = 382s

smoothSolver:  Solving for Ux, Initial residual = 0.0016613, Final residual = 3.66767e-05, No Iterations 2
smoothSolver:  Solving for Uy, Initial residual = 0.00863461, Final residual = 0.000217981, No Iterations 2
smoothSolver:  Solving for Uz, Initial residual = 0.00588723, Final residual = 0.000150611, No Iterations 2
DICPCG:  Solving for p, Initial residual = 0.0543204, Final residual = 0.00480811, No Iterations 8
time step continuity errors : sum local = 4.10297, global = 0.965577, cumulative = 32.9247
smoothSolver:  Solving for omega, Initial residual = 0.00262292, Final residual = 0.000207038, No Iterations 1
smoothSolver:  Solving for k, Initial residual = 0.0953775, Final residual = 0.00852675, No Iterations 1
ExecutionTime = 8.64888 s  ClockTime = 9 s

Time = 383s

smoothSolver:  Solving for Ux, Initial residual = 0.00163254, Final residual = 3.6305e-05, No Iterations 2
smoothSolver:  Solving for Uy, Initial residual = 0.00864094, Final residual = 0.000219778, No Iterations 2
smoothSolver:  Solving for Uz, Initial residual = 0.00590986, Final residual = 0.000150602, No Iterations 2
DICPCG:  Solving for p, Initial residual = 0.052565, Final residual = 0.00514691, No Iterations 7
time step continuity errors : sum local = 4.44548, global = 0.768653, cumulative = 33.6934
smoothSolver:  Solving for omega, Initial residual = 0.00249986, Final residual = 0.000196889, No Iterations 1
smoothSolver:  Solving for k, Initial residual = 0.0866733, Final residual = 0.00802858, No Iterations 1
ExecutionTime = 8.72956 s  ClockTime = 9 s

Time = 384s

smoothSolver:  Solving for Ux, Initial residual = 0.00160017, Final residual = 3.58469e-05, No Iterations 2
smoothSolver:  Solving for Uy, Initial residual = 0.00863484, Final residual = 0.000220613, No Iterations 2
smoothSolver:  Solving for Uz, Initial residual = 0.00594403, Final residual = 0.000153057, No Iterations 2
DICPCG:  Solving for p, Initial residual = 0.0521169, Final residual = 0.00459594, No Iterations 7
time step continuity errors : sum local = 3.98125, global = 0.448614, cumulative = 34.142
smoothSolver:  Solving for omega, Initial residual = 0.00239619, Final residual = 0.000190968, No Iterations 1
smoothSolver:  Solving for k, Initial residual = 0.0642672, Final residual = 0.00120545, No Iterations 2
ExecutionTime = 8.81263 s  ClockTime = 9 s

Time = 385s

smoothSolver:  Solving for Ux, Initial residual = 0.00157439, Final residual = 3.57334e-05, No Iterations 2
smoothSolver:  Solving for Uy, Initial residual = 0.00859811, Final residual = 0.000219999, No Iterations 2
smoothSolver:  Solving for Uz, Initial residual = 0.0060104, Final residual = 0.000157658, No Iterations 2
DICPCG:  Solving for p, Initial residual = 0.052532, Final residual = 0.00520716, No Iterations 5
time step continuity errors : sum local = 4.46758, global = -0.0594289, cumulative = 34.0826
smoothSolver:  Solving for omega, Initial residual = 0.00233332, Final residual = 0.000191024, No Iterations 1
smoothSolver:  Solving for k, Initial residual = 0.108355, Final residual = 0.0106044, No Iterations 1
ExecutionTime = 8.90007 s  ClockTime = 9 s

Time = 386s

smoothSolver:  Solving for Ux, Initial residual = 0.00155866, Final residual = 3.59187e-05, No Iterations 2
smoothSolver:  Solving for Uy, Initial residual = 0.00857875, Final residual = 0.000219371, No Iterations 2
smoothSolver:  Solving for Uz, Initial residual = 0.00606478, Final residual = 0.000161037, No Iterations 2
DICPCG:  Solving for p, Initial residual = 0.0532555, Final residual = 0.00510225, No Iterations 6
time step continuity errors : sum local = 4.36866, global = -0.795479, cumulative = 33.2871
smoothSolver:  Solving for omega, Initial residual = 0.00227742, Final residual = 0.000195058, No Iterations 1
smoothSolver:  Solving for k, Initial residual = 0.0981904, Final residual = 0.00905309, No Iterations 1
ExecutionTime = 8.98779 s  ClockTime = 9 s

Time = 387s

smoothSolver:  Solving for Ux, Initial residual = 0.00156955, Final residual = 3.61128e-05, No Iterations 2
smoothSolver:  Solving for Uy, Initial residual = 0.00861538, Final residual = 0.000219199, No Iterations 2
smoothSolver:  Solving for Uz, Initial residual = 0.00615628, Final residual = 0.000162406, No Iterations 2
DICPCG:  Solving for p, Initial residual = 0.0530219, Final residual = 0.00507838, No Iterations 7
time step continuity errors : sum local = 4.31047, global = -1.54113, cumulative = 31.7459
smoothSolver:  Solving for omega, Initial residual = 0.00224804, Final residual = 0.000204053, No Iterations 1
smoothSolver:  Solving for k, Initial residual = 0.0944007, Final residual = 0.00887457, No Iterations 1
ExecutionTime = 9.08015 s  ClockTime = 9 s

Time = 388s

smoothSolver:  Solving for Ux, Initial residual = 0.00160405, Final residual = 3.6473e-05, No Iterations 2
smoothSolver:  Solving for Uy, Initial residual = 0.00870906, Final residual = 0.000221655, No Iterations 2
smoothSolver:  Solving for Uz, Initial residual = 0.00629548, Final residual = 0.000164073, No Iterations 2
DICPCG:  Solving for p, Initial residual = 0.0511275, Final residual = 0.00446399, No Iterations 20
time step continuity errors : sum local = 3.84395, global = -0.0442398, cumulative = 31.7017
smoothSolver:  Solving for omega, Initial residual = 0.00225943, Final residual = 0.000215749, No Iterations 1
smoothSolver:  Solving for k, Initial residual = 0.08697, Final residual = 0.00768275, No Iterations 1
ExecutionTime = 9.19132 s  ClockTime = 9 s

Time = 389s

smoothSolver:  Solving for Ux, Initial residual = 0.00166165, Final residual = 3.69283e-05, No Iterations 2
smoothSolver:  Solving for Uy, Initial residual = 0.00879259, Final residual = 0.000224314, No Iterations 2
smoothSolver:  Solving for Uz, Initial residual = 0.00667928, Final residual = 0.000167391, No Iterations 2
DICPCG:  Solving for p, Initial residual = 0.0440316, Final residual = 0.00392897, No Iterations 6
time step continuity errors : sum local = 3.89945, global = -1.0672, cumulative = 30.6345
smoothSolver:  Solving for omega, Initial residual = 0.00224565, Final residual = 4.28022e-05, No Iterations 2
smoothSolver:  Solving for k, Initial residual = 0.0858105, Final residual = 0.00824004, No Iterations 1
ExecutionTime = 9.29197 s  ClockTime = 9 s

Time = 390s

smoothSolver:  Solving for Ux, Initial residual = 0.00167182, Final residual = 3.68768e-05, No Iterations 2
smoothSolver:  Solving for Uy, Initial residual = 0.00885625, Final residual = 0.000225086, No Iterations 2
smoothSolver:  Solving for Uz, Initial residual = 0.00669931, Final residual = 0.000167421, No Iterations 2
DICPCG:  Solving for p, Initial residual = 0.0453642, Final residual = 0.00366449, No Iterations 7
time step continuity errors : sum local = 3.50079, global = -0.349663, cumulative = 30.2848
smoothSolver:  Solving for omega, Initial residual = 0.00220818, Final residual = 4.28975e-05, No Iterations 2
smoothSolver:  Solving for k, Initial residual = 0.0840586, Final residual = 0.00772439, No Iterations 1
ExecutionTime = 9.39064 s  ClockTime = 9 s

Time = 391s

smoothSolver:  Solving for Ux, Initial residual = 0.00169818, Final residual = 3.69431e-05, No Iterations 2
smoothSolver:  Solving for Uy, Initial residual = 0.00893334, Final residual = 0.00022503, No Iterations 2
smoothSolver:  Solving for Uz, Initial residual = 0.00677212, Final residual = 0.000168892, No Iterations 2
DICPCG:  Solving for p, Initial residual = 0.0452559, Final residual = 0.00405381, No Iterations 7
time step continuity errors : sum local = 3.99526, global = 0.149863, cumulative = 30.4347
smoothSolver:  Solving for omega, Initial residual = 0.00217483, Final residual = 4.34049e-05, No Iterations 2
smoothSolver:  Solving for k, Initial residual = 0.0654554, Final residual = 0.00129278, No Iterations 2
ExecutionTime = 9.49882 s  ClockTime = 10 s

Time = 392s

smoothSolver:  Solving for Ux, Initial residual = 0.00172491, Final residual = 3.67201e-05, No Iterations 2
smoothSolver:  Solving for Uy, Initial residual = 0.00899656, Final residual = 0.000223317, No Iterations 2
smoothSolver:  Solving for Uz, Initial residual = 0.00685042, Final residual = 0.000170735, No Iterations 2
DICPCG:  Solving for p, Initial residual = 0.0483213, Final residual = 0.00480398, No Iterations 7
time step continuity errors : sum local = 4.69711, global = 0.403502, cumulative = 30.8382
smoothSolver:  Solving for omega, Initial residual = 0.00215139, Final residual = 4.43442e-05, No Iterations 2
smoothSolver:  Solving for k, Initial residual = 0.0683585, Final residual = 0.00128165, No Iterations 2
ExecutionTime = 9.59967 s  ClockTime = 10 s

Time = 393s

smoothSolver:  Solving for Ux, Initial residual = 0.00176217, Final residual = 3.68281e-05, No Iterations 2
smoothSolver:  Solving for Uy, Initial residual = 0.00905842, Final residual = 0.000222907, No Iterations 2
smoothSolver:  Solving for Uz, Initial residual = 0.00692396, Final residual = 0.000172633, No Iterations 2
DICPCG:  Solving for p, Initial residual = 0.0470744, Final residual = 0.00441448, No Iterations 8
time step continuity errors : sum local = 4.41164, global = 0.270986, cumulative = 31.1092
smoothSolver:  Solving for omega, Initial residual = 0.00213625, Final residual = 4.53529e-05, No Iterations 2
smoothSolver:  Solving for k, Initial residual = 0.10451, Final residual = 0.00865576, No Iterations 1
ExecutionTime = 9.69626 s  ClockTime = 10 s

Time = 394s

smoothSolver:  Solving for Ux, Initial residual = 0.0017914, Final residual = 3.70977e-05, No Iterations 2
smoothSolver:  Solving for Uy, Initial residual = 0.00913429, Final residual = 0.000223413, No Iterations 2
smoothSolver:  Solving for Uz, Initial residual = 0.00703, Final residual = 0.000174869, No Iterations 2
DICPCG:  Solving for p, Initial residual = 0.0485281, Final residual = 0.00467165, No Iterations 8
time step continuity errors : sum local = 4.47175, global = -0.177359, cumulative = 30.9318
smoothSolver:  Solving for omega, Initial residual = 0.00214, Final residual = 4.64689e-05, No Iterations 2
smoothSolver:  Solving for k, Initial residual = 0.0707536, Final residual = 0.00125205, No Iterations 2
ExecutionTime = 9.79161 s  ClockTime = 10 s

Time = 395s

smoothSolver:  Solving for Ux, Initial residual = 0.00180251, Final residual = 7.02246e-05, No Iterations 2
smoothSolver:  Solving for Uy, Initial residual = 0.00917573, Final residual = 0.000231258, No Iterations 2
smoothSolver:  Solving for Uz, Initial residual = 0.00712713, Final residual = 0.000473041, No Iterations 2
DICPCG:  Solving for p, Initial residual = 0.214449, Final residual = 0.0192513, No Iterations 46
time step continuity errors : sum local = 23.7147, global = -4.56645, cumulative = 26.3654
smoothSolver:  Solving for omega, Initial residual = 0.00301575, Final residual = 0.00026646, No Iterations 1
smoothSolver:  Solving for k, Initial residual = 0.408247, Final residual = 0.0116487, No Iterations 1
ExecutionTime = 9.93258 s  ClockTime = 10 s

Time = 396s

smoothSolver:  Solving for Ux, Initial residual = 0.0436277, Final residual = 0.00133224, No Iterations 1
smoothSolver:  Solving for Uy, Initial residual = 0.033605, Final residual = 0.00155498, No Iterations 1
smoothSolver:  Solving for Uz, Initial residual = 0.175826, Final residual = 0.00321529, No Iterations 1
DICPCG:  Solving for p, Initial residual = 0.269772, Final residual = 0.0260492, No Iterations 30
time step continuity errors : sum local = 18.344, global = 4.49129, cumulative = 30.8567
smoothSolver:  Solving for omega, Initial residual = 0.00256437, Final residual = 4.93688e-05, No Iterations 2
smoothSolver:  Solving for k, Initial residual = 0.314228, Final residual = 0.0127026, No Iterations 1
ExecutionTime = 10.045 s  ClockTime = 10 s

Time = 397s

smoothSolver:  Solving for Ux, Initial residual = 0.0451731, Final residual = 0.000869408, No Iterations 1
smoothSolver:  Solving for Uy, Initial residual = 0.0470106, Final residual = 0.00258216, No Iterations 1
smoothSolver:  Solving for Uz, Initial residual = 0.15244, Final residual = 0.00173818, No Iterations 1
DICPCG:  Solving for p, Initial residual = 0.274543, Final residual = 0.0267136, No Iterations 25
time step continuity errors : sum local = 16.5803, global = 4.10364, cumulative = 34.9603
smoothSolver:  Solving for omega, Initial residual = 0.00219798, Final residual = 4.75485e-05, No Iterations 2
smoothSolver:  Solving for k, Initial residual = 0.275898, Final residual = 0.0176966, No Iterations 1
ExecutionTime = 10.1445 s  ClockTime = 10 s

Time = 398s

smoothSolver:  Solving for Ux, Initial residual = 0.0327775, Final residual = 0.00128247, No Iterations 1
smoothSolver:  Solving for Uy, Initial residual = 0.0720638, Final residual = 0.00484787, No Iterations 1
smoothSolver:  Solving for Uz, Initial residual = 0.127195, Final residual = 0.00239799, No Iterations 1
DICPCG:  Solving for p, Initial residual = 0.120824, Final residual = 0.011865, No Iterations 8
time step continuity errors : sum local = 13.7335, global = 5.84983, cumulative = 40.8101
smoothSolver:  Solving for omega, Initial residual = 0.00199166, Final residual = 4.75725e-05, No Iterations 2
smoothSolver:  Solving for k, Initial residual = 0.249333, Final residual = 0.0227052, No Iterations 1
ExecutionTime = 10.2326 s  ClockTime = 10 s

Time = 399s

smoothSolver:  Solving for Ux, Initial residual = 0.0242309, Final residual = 0.00111927, No Iterations 1
smoothSolver:  Solving for Uy, Initial residual = 0.059977, Final residual = 0.00456059, No Iterations 1
smoothSolver:  Solving for Uz, Initial residual = 0.105971, Final residual = 0.00265224, No Iterations 1
DICPCG:  Solving for p, Initial residual = 0.110257, Final residual = 0.0100789, No Iterations 23
time step continuity errors : sum local = 12.1571, global = 2.63555, cumulative = 43.4457
smoothSolver:  Solving for omega, Initial residual = 0.00196579, Final residual = 4.98704e-05, No Iterations 2
smoothSolver:  Solving for k, Initial residual = 0.209504, Final residual = 0.0205317, No Iterations 1
ExecutionTime = 10.335 s  ClockTime = 10 s

Time = 400s

smoothSolver:  Solving for Ux, Initial residual = 0.0150829, Final residual = 0.000563624, No Iterations 1
smoothSolver:  Solving for Uy, Initial residual = 0.0321674, Final residual = 0.00268774, No Iterations 1
smoothSolver:  Solving for Uz, Initial residual = 0.0807231, Final residual = 0.00265484, No Iterations 1
DICPCG:  Solving for p, Initial residual = 0.105054, Final residual = 0.00939387, No Iterations 22
time step continuity errors : sum local = 10.507, global = -0.677392, cumulative = 42.7683
smoothSolver:  Solving for omega, Initial residual = 0.0019481, Final residual = 5.15975e-05, No Iterations 2
[...]
smoothSolver:  Solving for Uz, Initial residual = 0.09864, Final residual = 0.00497573, No Iterations 2
DICPCG:  Solving for p, Initial residual = 0.428518, Final residual = 0.0382162, No Iterations 13
time step continuity errors : sum local = 2.22162e+45, global = 1.52506e+44, cumulative = -2.59881e+45
smoothSolver:  Solving for omega, Initial residual = 0.0326306, Final residual = 0.00154018, No Iterations 2
smoothSolver:  Solving for k, Initial residual = 0.0919686, Final residual = 0.00362405, No Iterations 2
ExecutionTime = 26.9602 s  ClockTime = 27 s

Time = 538s

smoothSolver:  Solving for Ux, Initial residual = 0.0573376, Final residual = 0.00300209, No Iterations 2
smoothSolver:  Solving for Uy, Initial residual = 0.0655172, Final residual = 0.00338478, No Iterations 2
smoothSolver:  Solving for Uz, Initial residual = 0.106149, Final residual = 0.00553635, No Iterations 2
DICPCG:  Solving for p, Initial residual = 0.519479, Final residual = 0.0475732, No Iterations 12
time step continuity errors : sum local = 2.3035e+45, global = 6.36577e+44, cumulative = -1.96223e+45
smoothSolver:  Solving for omega, Initial residual = 0.0326472, Final residual = 0.00153213, No Iterations 2
smoothSolver:  Solving for k, Initial residual = 0.103778, Final residual = 0.00401379, No Iterations 2
ExecutionTime = 27.062 s  ClockTime = 27 s

Time = 539s

smoothSolver:  Solving for Ux, Initial residual = 0.0566899, Final residual = 0.00303214, No Iterations 2
smoothSolver:  Solving for Uy, Initial residual = 0.0643669, Final residual = 0.00334707, No Iterations 2
smoothSolver:  Solving for Uz, Initial residual = 0.109751, Final residual = 0.00587424, No Iterations 2
DICPCG:  Solving for p, Initial residual = 0.539277, Final residual = 0.0523054, No Iterations 12
time step continuity errors : sum local = 2.54244e+45, global = 8.36928e+44, cumulative = -1.1253e+45
smoothSolver:  Solving for omega, Initial residual = 0.0328179, Final residual = 0.00153429, No Iterations 2
smoothSolver:  Solving for k, Initial residual = 0.108631, Final residual = 0.0042812, No Iterations 2
ExecutionTime = 27.164 s  ClockTime = 27 s

Time = 540s

smoothSolver:  Solving for Ux, Initial residual = 0.05584, Final residual = 0.00303598, No Iterations 2
smoothSolver:  Solving for Uy, Initial residual = 0.0635908, Final residual = 0.00331266, No Iterations 2
smoothSolver:  Solving for Uz, Initial residual = 0.111172, Final residual = 0.00604377, No Iterations 2
DICPCG:  Solving for p, Initial residual = 0.464439, Final residual = 0.041054, No Iterations 14
time step continuity errors : sum local = 2.35038e+45, global = 5.93056e+44, cumulative = -5.32244e+44
smoothSolver:  Solving for omega, Initial residual = 0.0331815, Final residual = 0.0015512, No Iterations 2
smoothSolver:  Solving for k, Initial residual = 0.124033, Final residual = 0.00454638, No Iterations 2
ExecutionTime = 27.2671 s  ClockTime = 27 s

Time = 541s

smoothSolver:  Solving for Ux, Initial residual = 0.0551757, Final residual = 0.00303458, No Iterations 2
smoothSolver:  Solving for Uy, Initial residual = 0.06314, Final residual = 0.00329924, No Iterations 2
smoothSolver:  Solving for Uz, Initial residual = 0.110866, Final residual = 0.0060695, No Iterations 2
DICPCG:  Solving for p, Initial residual = 0.38112, Final residual = 0.0321997, No Iterations 14
time step continuity errors : sum local = 2.20362e+45, global = 2.07476e+44, cumulative = -3.24769e+44
smoothSolver:  Solving for omega, Initial residual = 0.0334471, Final residual = 0.001569, No Iterations 2
smoothSolver:  Solving for k, Initial residual = 0.116014, Final residual = 0.00442427, No Iterations 2
ExecutionTime = 27.3822 s  ClockTime = 27 s

Time = 542s

smoothSolver:  Solving for Ux, Initial residual = 0.0544784, Final residual = 0.00302679, No Iterations 2
smoothSolver:  Solving for Uy, Initial residual = 0.0621506, Final residual = 0.00327471, No Iterations 2
smoothSolver:  Solving for Uz, Initial residual = 0.109515, Final residual = 0.00599368, No Iterations 2
DICPCG:  Solving for p, Initial residual = 0.360464, Final residual = 0.0347935, No Iterations 13
time step continuity errors : sum local = 2.34874e+45, global = -2.96893e+44, cumulative = -6.21662e+44
smoothSolver:  Solving for omega, Initial residual = 0.0336811, Final residual = 0.00158538, No Iterations 2
smoothSolver:  Solving for k, Initial residual = 0.125861, Final residual = 0.00463016, No Iterations 2
ExecutionTime = 27.4813 s  ClockTime = 28 s

Time = 543s

smoothSolver:  Solving for Ux, Initial residual = 0.0536476, Final residual = 0.00300948, No Iterations 2
smoothSolver:  Solving for Uy, Initial residual = 0.0606299, Final residual = 0.00323117, No Iterations 2
smoothSolver:  Solving for Uz, Initial residual = 0.106254, Final residual = 0.00589071, No Iterations 2
DICPCG:  Solving for p, Initial residual = 0.323231, Final residual = 0.0290354, No Iterations 17
time step continuity errors : sum local = 2.13985e+45, global = -4.59143e+44, cumulative = -1.0808e+45
smoothSolver:  Solving for omega, Initial residual = 0.0338586, Final residual = 0.00159636, No Iterations 2
smoothSolver:  Solving for k, Initial residual = 0.130538, Final residual = 0.00482995, No Iterations 2
ExecutionTime = 27.5866 s  ClockTime = 28 s

Time = 544s

smoothSolver:  Solving for Ux, Initial residual = 0.052906, Final residual = 0.00299724, No Iterations 2
smoothSolver:  Solving for Uy, Initial residual = 0.0591388, Final residual = 0.00318847, No Iterations 2
smoothSolver:  Solving for Uz, Initial residual = 0.104297, Final residual = 0.00576487, No Iterations 2
DICPCG:  Solving for p, Initial residual = 0.520771, Final residual = 0.0458932, No Iterations 18
time step continuity errors : sum local = 1.96434e+45, global = -3.45651e+44, cumulative = -1.42646e+45
smoothSolver:  Solving for omega, Initial residual = 0.0338614, Final residual = 0.00159581, No Iterations 2
smoothSolver:  Solving for k, Initial residual = 0.127409, Final residual = 0.00467503, No Iterations 2
ExecutionTime = 27.6947 s  ClockTime = 28 s

Time = 545s

smoothSolver:  Solving for Ux, Initial residual = 0.052055, Final residual = 0.00296814, No Iterations 2
smoothSolver:  Solving for Uy, Initial residual = 0.0578286, Final residual = 0.00313058, No Iterations 2
smoothSolver:  Solving for Uz, Initial residual = 0.102918, Final residual = 0.00569204, No Iterations 2
DICPCG:  Solving for p, Initial residual = 0.366108, Final residual = 0.0351116, No Iterations 15
time step continuity errors : sum local = 2.13227e+45, global = -3.79447e+44, cumulative = -1.8059e+45
smoothSolver:  Solving for omega, Initial residual = 0.0338352, Final residual = 0.00158882, No Iterations 2
smoothSolver:  Solving for k, Initial residual = 0.125691, Final residual = 0.0046595, No Iterations 2
ExecutionTime = 27.7997 s  ClockTime = 28 s

Time = 546s

smoothSolver:  Solving for Ux, Initial residual = 0.0510431, Final residual = 0.00290614, No Iterations 2
smoothSolver:  Solving for Uy, Initial residual = 0.0564248, Final residual = 0.00306176, No Iterations 2
smoothSolver:  Solving for Uz, Initial residual = 0.101118, Final residual = 0.00556414, No Iterations 2
DICPCG:  Solving for p, Initial residual = 0.306012, Final residual = 0.0292174, No Iterations 13
time step continuity errors : sum local = 2.14436e+45, global = -2.21244e+44, cumulative = -2.02715e+45
smoothSolver:  Solving for omega, Initial residual = 0.0338398, Final residual = 0.00157653, No Iterations 2
smoothSolver:  Solving for k, Initial residual = 0.137808, Final residual = 0.00490289, No Iterations 2
ExecutionTime = 27.8967 s  ClockTime = 28 s

Time = 547s

smoothSolver:  Solving for Ux, Initial residual = 0.050154, Final residual = 0.00283724, No Iterations 2
smoothSolver:  Solving for Uy, Initial residual = 0.0552171, Final residual = 0.00300378, No Iterations 2
smoothSolver:  Solving for Uz, Initial residual = 0.0987158, Final residual = 0.00536019, No Iterations 2
DICPCG:  Solving for p, Initial residual = 0.288844, Final residual = 0.0232593, No Iterations 14
time step continuity errors : sum local = 1.76531e+45, global = 1.01243e+43, cumulative = -2.01702e+45
smoothSolver:  Solving for omega, Initial residual = 0.0339463, Final residual = 0.00156331, No Iterations 2
smoothSolver:  Solving for k, Initial residual = 0.133122, Final residual = 0.00469016, No Iterations 2
ExecutionTime = 27.9962 s  ClockTime = 28 s

Time = 548s

smoothSolver:  Solving for Ux, Initial residual = 0.0494574, Final residual = 0.00277523, No Iterations 2
smoothSolver:  Solving for Uy, Initial residual = 0.0542189, Final residual = 0.00295222, No Iterations 2
smoothSolver:  Solving for Uz, Initial residual = 0.0955766, Final residual = 0.00513422, No Iterations 2
DICPCG:  Solving for p, Initial residual = 0.265109, Final residual = 0.0259502, No Iterations 13
time step continuity errors : sum local = 2.20497e+45, global = 1.14719e+44, cumulative = -1.9023e+45
smoothSolver:  Solving for omega, Initial residual = 0.0339604, Final residual = 0.00154216, No Iterations 2
smoothSolver:  Solving for k, Initial residual = 0.146098, Final residual = 0.00482715, No Iterations 2
ExecutionTime = 28.0951 s  ClockTime = 28 s

Time = 549s

smoothSolver:  Solving for Ux, Initial residual = 0.0487712, Final residual = 0.00271043, No Iterations 2
smoothSolver:  Solving for Uy, Initial residual = 0.0531589, Final residual = 0.00289402, No Iterations 2
smoothSolver:  Solving for Uz, Initial residual = 0.0931862, Final residual = 0.00488336, No Iterations 2
DICPCG:  Solving for p, Initial residual = 0.24659, Final residual = 0.0239306, No Iterations 13
time step continuity errors : sum local = 2.27007e+45, global = 2.15653e+44, cumulative = -1.68665e+45
smoothSolver:  Solving for omega, Initial residual = 0.0339511, Final residual = 0.00151511, No Iterations 2
smoothSolver:  Solving for k, Initial residual = 0.143804, Final residual = 0.00476024, No Iterations 2
ExecutionTime = 28.1965 s  ClockTime = 28 s

Time = 550s

smoothSolver:  Solving for Ux, Initial residual = 0.0480501, Final residual = 0.00263721, No Iterations 2
smoothSolver:  Solving for Uy, Initial residual = 0.0521369, Final residual = 0.00282806, No Iterations 2
smoothSolver:  Solving for Uz, Initial residual = 0.0904319, Final residual = 0.00461925, No Iterations 2
DICPCG:  Solving for p, Initial residual = 0.238936, Final residual = 0.0224188, No Iterations 19
time step continuity errors : sum local = 2.03022e+45, global = 3.21344e+44, cumulative = -1.36531e+45
smoothSolver:  Solving for omega, Initial residual = 0.0337993, Final residual = 0.00147203, No Iterations 2
smoothSolver:  Solving for k, Initial residual = 0.159551, Final residual = 0.00457422, No Iterations 2
ExecutionTime = 28.5778 s  ClockTime = 29 s

Time = 551s

smoothSolver:  Solving for Ux, Initial residual = 0.047097, Final residual = 0.00255319, No Iterations 2
smoothSolver:  Solving for Uy, Initial residual = 0.0510035, Final residual = 0.00274577, No Iterations 2
smoothSolver:  Solving for Uz, Initial residual = 0.0855272, Final residual = 0.00428622, No Iterations 2
DICPCG:  Solving for p, Initial residual = 0.217454, Final residual = 0.0190612, No Iterations 19
time step continuity errors : sum local = 1.90752e+45, global = 2.72034e+44, cumulative = -1.09327e+45
smoothSolver:  Solving for omega, Initial residual = 0.0335929, Final residual = 0.00141671, No Iterations 2
smoothSolver:  Solving for k, Initial residual = 0.152852, Final residual = 0.00432811, No Iterations 2
ExecutionTime = 28.6841 s  ClockTime = 29 s

Time = 552s

smoothSolver:  Solving for Ux, Initial residual = 0.0460238, Final residual = 0.00246313, No Iterations 2
smoothSolver:  Solving for Uy, Initial residual = 0.0500268, Final residual = 0.00267189, No Iterations 2
smoothSolver:  Solving for Uz, Initial residual = 0.0808847, Final residual = 0.00398361, No Iterations 2
DICPCG:  Solving for p, Initial residual = 0.204652, Final residual = 0.020216, No Iterations 16
time step continuity errors : sum local = 2.24438e+45, global = 2.1365e+44, cumulative = -8.79622e+44
smoothSolver:  Solving for omega, Initial residual = 0.0331542, Final residual = 0.0013461, No Iterations 2
smoothSolver:  Solving for k, Initial residual = 0.170282, Final residual = 0.00454973, No Iterations 2
ExecutionTime = 28.7864 s  ClockTime = 29 s

Time = 553s

smoothSolver:  Solving for Ux, Initial residual = 0.0449483, Final residual = 0.00237111, No Iterations 2
smoothSolver:  Solving for Uy, Initial residual = 0.0489022, Final residual = 0.00259366, No Iterations 2
smoothSolver:  Solving for Uz, Initial residual = 0.0773151, Final residual = 0.00371447, No Iterations 2
DICPCG:  Solving for p, Initial residual = 0.194836, Final residual = 0.0190994, No Iterations 15
time step continuity errors : sum local = 2.3565e+45, global = 1.2896e+44, cumulative = -7.50662e+44
smoothSolver:  Solving for omega, Initial residual = 0.032497, Final residual = 0.00126732, No Iterations 2
smoothSolver:  Solving for k, Initial residual = 0.192112, Final residual = 0.00468404, No Iterations 2
ExecutionTime = 28.8902 s  ClockTime = 29 s

Time = 554s

smoothSolver:  Solving for Ux, Initial residual = 0.0439374, Final residual = 0.00228383, No Iterations 2
smoothSolver:  Solving for Uy, Initial residual = 0.047632, Final residual = 0.00250301, No Iterations 2
smoothSolver:  Solving for Uz, Initial residual = 0.0761964, Final residual = 0.00342742, No Iterations 2
DICPCG:  Solving for p, Initial residual = 0.173423, Final residual = 0.0157798, No Iterations 15
time step continuity errors : sum local = 2.14802e+45, global = 1.72025e+44, cumulative = -5.78638e+44
smoothSolver:  Solving for omega, Initial residual = 0.0315026, Final residual = 0.00118397, No Iterations 2
smoothSolver:  Solving for k, Initial residual = 0.175446, Final residual = 0.00446883, No Iterations 2
ExecutionTime = 28.9929 s  ClockTime = 29 s

Time = 555s

smoothSolver:  Solving for Ux, Initial residual = 0.0429509, Final residual = 0.00219988, No Iterations 2
smoothSolver:  Solving for Uy, Initial residual = 0.046224, Final residual = 0.00239896, No Iterations 2
smoothSolver:  Solving for Uz, Initial residual = 0.0734818, Final residual = 0.00313262, No Iterations 2
DICPCG:  Solving for p, Initial residual = 0.16258, Final residual = 0.0159905, No Iterations 18
time step continuity errors : sum local = 2.16167e+45, global = 4.04283e+44, cumulative = -1.74355e+44
smoothSolver:  Solving for omega, Initial residual = 0.0302803, Final residual = 0.00110125, No Iterations 2
smoothSolver:  Solving for k, Initial residual = 0.193375, Final residual = 0.0044821, No Iterations 2
ExecutionTime = 29.1001 s  ClockTime = 29 s

Time = 556s

smoothSolver:  Solving for Ux, Initial residual = 0.0418529, Final residual = 0.00210055, No Iterations 2
smoothSolver:  Solving for Uy, Initial residual = 0.0445036, Final residual = 0.00227117, No Iterations 2
smoothSolver:  Solving for Uz, Initial residual = 0.0681161, Final residual = 0.0028576, No Iterations 2
DICPCG:  Solving for p, Initial residual = 0.166348, Final residual = 0.0139834, No Iterations 23
time step continuity errors : sum local = 1.80265e+45, global = 1.8702e+44, cumulative = 1.26649e+43
smoothSolver:  Solving for omega, Initial residual = 0.028813, Final residual = 0.00102308, No Iterations 2
smoothSolver:  Solving for k, Initial residual = 0.194243, Final residual = 0.00446113, No Iterations 2
ExecutionTime = 29.2298 s  ClockTime = 29 s

Time = 557s

smoothSolver:  Solving for Ux, Initial residual = 0.0404967, Final residual = 0.00198515, No Iterations 2
smoothSolver:  Solving for Uy, Initial residual = 0.0423381, Final residual = 0.00211026, No Iterations 2
smoothSolver:  Solving for Uz, Initial residual = 0.0619611, Final residual = 0.00261429, No Iterations 2
DICPCG:  Solving for p, Initial residual = 0.22539, Final residual = 0.0201658, No Iterations 23
time step continuity errors : sum local = 1.84244e+45, global = 1.46088e+44, cumulative = 1.58753e+44
smoothSolver:  Solving for omega, Initial residual = 0.027169, Final residual = 0.000953499, No Iterations 2
smoothSolver:  Solving for k, Initial residual = 0.184417, Final residual = 0.00449443, No Iterations 2
ExecutionTime = 29.3546 s  ClockTime = 29 s

Time = 558s

smoothSolver:  Solving for Ux, Initial residual = 0.0393464, Final residual = 0.00188665, No Iterations 2
smoothSolver:  Solving for Uy, Initial residual = 0.0403644, Final residual = 0.00196591, No Iterations 2
smoothSolver:  Solving for Uz, Initial residual = 0.0572681, Final residual = 0.00240474, No Iterations 2
DICPCG:  Solving for p, Initial residual = 0.503113, Final residual = 0.0486271, No Iterations 20
time step continuity errors : sum local = 2.00314e+45, global = 2.88671e+44, cumulative = 4.47424e+44
smoothSolver:  Solving for omega, Initial residual = 0.0254618, Final residual = 0.000884944, No Iterations 2
smoothSolver:  Solving for k, Initial residual = 0.214756, Final residual = 0.00482372, No Iterations 2
ExecutionTime = 29.4704 s  ClockTime = 30 s

Time = 559s

smoothSolver:  Solving for Ux, Initial residual = 0.0379448, Final residual = 0.00178371, No Iterations 2
smoothSolver:  Solving for Uy, Initial residual = 0.0383758, Final residual = 0.00182629, No Iterations 2
smoothSolver:  Solving for Uz, Initial residual = 0.0538125, Final residual = 0.00221774, No Iterations 2
DICPCG:  Solving for p, Initial residual = 0.376686, Final residual = 0.0373669, No Iterations 10
time step continuity errors : sum local = 1.6627e+45, global = 3.43359e+44, cumulative = 7.90783e+44
smoothSolver:  Solving for omega, Initial residual = 0.0238269, Final residual = 0.000814054, No Iterations 2
smoothSolver:  Solving for k, Initial residual = 0.217209, Final residual = 0.00482396, No Iterations 2
ExecutionTime = 29.5863 s  ClockTime = 30 s

Time = 560s

smoothSolver:  Solving for Ux, Initial residual = 0.0355418, Final residual = 0.00185092, No Iterations 11
smoothSolver:  Solving for Uy, Initial residual = 0.0360491, Final residual = 0.00277273, No Iterations 11
smoothSolver:  Solving for Uz, Initial residual = 0.0538295, Final residual = 0.00102792, No Iterations 12
DICPCG:  Solving for p, Initial residual = 0.958474, Final residual = 1.35687e+08, No Iterations 1000
time step continuity errors : sum local = 5.95686e+66, global = 4.44181e+59, cumulative = 4.44181e+59
smoothSolver:  Solving for omega, Initial residual = 0.349683, Final residual = 5.5024e-05, No Iterations 2
smoothSolver:  Solving for k, Initial residual = 0.124365, Final residual = 1.66215e-08, No Iterations 2
ExecutionTime = 30.8389 s  ClockTime = 31 s

Time = 561s

#0  Foam::error::printStack(Foam::Ostream&) at ??:?
#1  Foam::sigFpe::sigHandler(int) at ??:?
#2  ? in "/usr/lib/x86_64-linux-gnu/libc.so.6"
#3  Foam::symGaussSeidelSmoother::smooth(Foam::word const&, Foam::Field<double>&, Foam::lduMatrix const&, Foam::Field<double> const&, Foam::FieldField<Foam::Field, double> const&, Foam::UPtrList<Foam::lduInterfaceField const> const&, unsigned char, int) at ??:?
#4  Foam::symGaussSeidelSmoother::smooth(Foam::Field<double>&, Foam::Field<double> const&, unsigned char, int) const at ??:?
#5  Foam::smoothSolver::solve(Foam::Field<double>&, Foam::Field<double> const&, unsigned char) const at ??:?
#6  Foam::fvMatrix<Foam::Vector<double> >::solveSegregated(Foam::dictionary const&) at ??:?
#7  Foam::fvMatrix<Foam::Vector<double> >::solve(Foam::dictionary const&) at ??:?
#8  Foam::fvMatrix<Foam::Vector<double> >::solve() at ??:?
#9  Foam::solvers::incompressibleFluid::momentumPredictor() at ??:?
#10  ? in "/opt/openfoam13/platforms/linux64GccDPInt32Opt/bin/foamRun"
#11  ? in "/usr/lib/x86_64-linux-gnu/libc.so.6"
#12  __libc_start_main in "/usr/lib/x86_64-linux-gnu/libc.so.6"
#13  ? in "/opt/openfoam13/platforms/linux64GccDPInt32Opt/bin/foamRun"
