/*---------------------------------------------------------------------------*\
  =========                 |
  \\      /  F ield         | OpenFOAM: The Open Source CFD Toolbox
   \\    /   O peration     | Website:  https://openfoam.org
    \\  /    A nd           | Version:  13
     \\/     M anipulation  |
\*---------------------------------------------------------------------------*/
Build  : 13-cde978a97c93
Exec   : blockMesh
Date   : Feb 25 2026
Time   : 15:59:39
Host   : "JOO-DESKTOP"
PID    : 33795
I/O    : uncollated
Case   : /home/joo/OpenFOAM/joo-13/run/trackB_propellerIGE_v13/cases/baseCase
nProcs : 1
sigFpe : Enabling floating point exception trapping (FOAM_SIGFPE).
fileModificationChecking : Monitoring run-time modified files using timeStampMaster (fileModificationSkew 10)
allowSystemOperations : Allowing user-supplied system call operations

// * * * * * * * * * * * * * * * * * * * * * * * * * * * * * * * * * * * * * //
Create time

Deleting polyMesh directory
    "/home/joo/OpenFOAM/joo-13/run/trackB_propellerIGE_v13/cases/baseCase/constant/polyMesh"
Reading "blockMeshDict"

Creating block mesh from
    "system/blockMeshDict"
No non-linear block edges defined
No non-planar block faces defined
Creating topology blocks
Creating topology patches

Creating block mesh topology

Basic statistics
    Number of internal faces : 0
    Number of boundary faces : 6
    Number of defined boundary faces : 6
    Number of undefined boundary faces : 0

Checking topology
Creating block offsets
Creating merge list .

Creating polyMesh from blockMesh
Creating patches
Creating cells
Creating points with scale 1
    Block 0 cell size :
        i : 0.05
        j : 0.05
        k : 0.025 .. 0.025

No patch pairs to merge

Writing polyMesh
----------------
Mesh Information
----------------
  boundingBox: (-1 -1 0) (1 1 1.2)
  nPoints: 82369
  nCells: 76800
  nFaces: 235840
  nInternalFaces: 224960
----------------
Patches
----------------
  patch 0 (start: 224960 size: 1600) name: ground
  patch 1 (start: 226560 size: 1600) name: top
  patch 2 (start: 228160 size: 7680) name: farField

End

