/*---------------------------------------------------------------------------*\
  =========                 |
  \\      /  F ield         | OpenFOAM: The Open Source CFD Toolbox
   \\    /   O peration     | Website:  https://openfoam.org
    \\  /    A nd           | Version:  13
     \\/     M anipulation  |
\*---------------------------------------------------------------------------*/
Build  : 13-cde978a97c93
Exec   : blockMesh
Date   : Feb 26 2026
Time   : 15:42:53
Host   : "JOO-DESKTOP"
PID    : 40666
I/O    : uncollated
Case   : /home/joo/OpenFOAM/joo-13/run/trackB_propellerIGE_v13/cases/baseCase
nProcs : 1
sigFpe : Enabling floating point exception trapping (FOAM_SIGFPE).
fileModificationChecking : Monitoring run-time modified files using timeStampMaster (fileModificationSkew 10)
allowSystemOperations : Allowing user-supplied system call operations

// * * * * * * * * * * * * * * * * * * * * * * * * * * * * * * * * * * * * * //
Create time

Deleting polyMesh directory
    "/home/joo/OpenFOAM/joo-13/run/trackB_propellerIGE_v13/cases/baseCase/constant/polyMesh"
Reading "blockMeshDict"

Creating block mesh from
    "system/blockMeshDict"
No non-linear block edges defined
No non-planar block faces defined
Creating topology blocks
Creating topology patches

Creating block mesh topology

Basic statistics
    Number of internal faces : 0
    Number of boundary faces : 6
    Number of defined boundary faces : 6
    Number of undefined boundary faces : 0

Checking topology
Creating block offsets
Creating merge list .

Creating polyMesh from blockMesh
Creating patches
Creating cells
Creating points with scale 1
    Block 0 cell size :
        i : 0.0625
        j : 0.0625
        k : 0.03125

No patch pairs to merge

Writing polyMesh
----------------
Mesh Information
----------------
  boundingBox: (-2 -2 0) (2 2 3)
  nPoints: 409825
  nCells: 393216
  nFaces: 1196032
  nInternalFaces: 1163264
----------------
Patches
----------------
  patch 0 (start: 1163264 size: 4096) name: ground
  patch 1 (start: 1167360 size: 4096) name: top
  patch 2 (start: 1171456 size: 24576) name: farField

End

