/*---------------------------------------------------------------------------*\
  =========                 |
  \\      /  F ield         | OpenFOAM: The Open Source CFD Toolbox
   \\    /   O peration     | Website:  https://openfoam.org
    \\  /    A nd           | Version:  13
     \\/     M anipulation  |
\*---------------------------------------------------------------------------*/
Build  : 13-cde978a97c93
Exec   : foamRun
Date   : Feb 26 2026
Time   : 15:45:41
Host   : "JOO-DESKTOP"
PID    : 42025
I/O    : uncollated
Case   : /home/joo/OpenFOAM/joo-13/run/trackB_propellerIGE_v13/cases/baseCase
nProcs : 1
sigFpe : Enabling floating point exception trapping (FOAM_SIGFPE).
fileModificationChecking : Monitoring run-time modified files using timeStampMaster (fileModificationSkew 10)
allowSystemOperations : Allowing user-supplied system call operations

// * * * * * * * * * * * * * * * * * * * * * * * * * * * * * * * * * * * * * //
Create time

Create mesh for time = 0

Selecting solver incompressibleFluid
Selecting viscosity model constant
Selecting turbulence model type RAS
    Selecting RAS turbulence model kOmegaSST
No MRF models present

Selecting patchDistMethod meshWave
Creating fvModels from "constant/fvModels"

Selecting finite volume model type propellerDisk
    Name: diskSource

SIMPLE: Convergence criteria found
        p: tolerance 0.0001
        U: tolerance 1e-05
        k: tolerance 1e-05
        omega: tolerance 1e-05


SIMPLE: Operating solver in steady-state mode with 1 outer corrector
SIMPLE: Operating solver in SIMPLE mode



Starting time loop

Reading set description:
    line

volFieldValue Uavg_propeller read:
    number of cells = 104
    volume = 0.0126953
    operation = volAverage

surfaceFieldValue phi_farField read:
    number of faces = 24576
    area = 48
    operation = orientedSum

surfaceFieldValue phi_top read:
    number of faces = 4096
    area = 16
    operation = orientedSum

volFieldValue Uavg_propeller write:
    volAverage(propeller) of U = (0 0 -0.01)

surfaceFieldValue phi_farField write:
    orientedSum(farField) of phi = 0

surfaceFieldValue phi_top write:
    orientedSum(top) of phi = 0

Time = 1s

--> FOAM Warning : 
    From function void Foam::Function1s::Table<Type>::checkX(Foam::scalar) const [with Type = Foam::Vector2D<double>; Foam::scalar = double]
    in file lnInclude/Table.C at line 107
    "value (0.000769231) underflow"

--> FOAM Warning : 
    From function void Foam::Function1s::Table<Type>::checkX(Foam::scalar) const [with Type = Foam::Vector2D<double>; Foam::scalar = double]
    in file lnInclude/Table.C at line 107
    "value (-42.2459) underflow"

smoothSolver:  Solving for Ux, Initial residual = 1, Final residual = 0.0295823, No Iterations 1
smoothSolver:  Solving for Uy, Initial residual = 1, Final residual = 0.0295823, No Iterations 1
smoothSolver:  Solving for Uz, Initial residual = 1, Final residual = 0.0301301, No Iterations 1
DICPCG:  Solving for p, Initial residual = 1, Final residual = 0.0493796, No Iterations 27
time step continuity errors : sum local = 0.0741285, global = -0.0149604, cumulative = -0.0149604
smoothSolver:  Solving for omega, Initial residual = 0.0635584, Final residual = 0.00310094, No Iterations 1
smoothSolver:  Solving for k, Initial residual = 1, Final residual = 0.048625, No Iterations 1
ExecutionTime = 3.77732 s  ClockTime = 4 s

volFieldValue Uavg_propeller write:
    volAverage(propeller) of U = (-0.00284782 -0.00237996 -156.187)

surfaceFieldValue phi_farField write:
    orientedSum(farField) of phi = 0.118057

surfaceFieldValue phi_top write:
    orientedSum(top) of phi = -0.836157

Time = 2s

--> FOAM Warning : 
    From function void Foam::Function1s::Table<Type>::checkX(Foam::scalar) const [with Type = Foam::Vector2D<double>; Foam::scalar = double]
    in file lnInclude/Table.C at line 107
    "value (12.0143) overflow"

--> FOAM Warning : 
    From function void Foam::Function1s::Table<Type>::checkX(Foam::scalar) const [with Type = Foam::Vector2D<double>; Foam::scalar = double]
    in file lnInclude/Table.C at line 107
    "value (12.0141) overflow"

smoothSolver:  Solving for Ux, Initial residual = 0.255669, Final residual = 0.0126713, No Iterations 1
smoothSolver:  Solving for Uy, Initial residual = 0.255667, Final residual = 0.0124173, No Iterations 1
smoothSolver:  Solving for Uz, Initial residual = 0.263669, Final residual = 0.013335, No Iterations 1
DICPCG:  Solving for p, Initial residual = 0.984722, Final residual = 0.0471801, No Iterations 38
time step continuity errors : sum local = 0.0602485, global = -0.00713909, cumulative = -0.0220995
smoothSolver:  Solving for omega, Initial residual = 0.0268255, Final residual = 0.00139567, No Iterations 1
smoothSolver:  Solving for k, Initial residual = 0.0933802, Final residual = 0.00489354, No Iterations 1
ExecutionTime = 4.63789 s  ClockTime = 5 s

volFieldValue Uavg_propeller write:
    volAverage(propeller) of U = (0.0625229 -0.00447234 -107.392)

surfaceFieldValue phi_farField write:
    orientedSum(farField) of phi = 1.59226

surfaceFieldValue phi_top write:
    orientedSum(top) of phi = -1.93493

Time = 3s

--> FOAM Warning : 
    From function void Foam::Function1s::Table<Type>::checkX(Foam::scalar) const [with Type = Foam::Vector2D<double>; Foam::scalar = double]
    in file lnInclude/Table.C at line 107
    "value (8.2609) overflow"

--> FOAM Warning : 
    From function void Foam::Function1s::Table<Type>::checkX(Foam::scalar) const [with Type = Foam::Vector2D<double>; Foam::scalar = double]
    in file lnInclude/Table.C at line 107
    "value (8.26047) overflow"

smoothSolver:  Solving for Ux, Initial residual = 0.222275, Final residual = 0.0100478, No Iterations 1
smoothSolver:  Solving for Uy, Initial residual = 0.222193, Final residual = 0.00975362, No Iterations 1
smoothSolver:  Solving for Uz, Initial residual = 0.231291, Final residual = 0.00966223, No Iterations 1
DICPCG:  Solving for p, Initial residual = 0.0880523, Final residual = 0.00425688, No Iterations 37
time step continuity errors : sum local = 0.0450137, global = -0.00638388, cumulative = -0.0284834
smoothSolver:  Solving for omega, Initial residual = 0.0419712, Final residual = 0.00219704, No Iterations 1
smoothSolver:  Solving for k, Initial residual = 0.127077, Final residual = 0.00665934, No Iterations 1
ExecutionTime = 5.46074 s  ClockTime = 5 s

volFieldValue Uavg_propeller write:
    volAverage(propeller) of U = (0.0837176 -0.04265 -65.5432)

surfaceFieldValue phi_farField write:
    orientedSum(farField) of phi = 1.47217

surfaceFieldValue phi_top write:
    orientedSum(top) of phi = -1.7786

Time = 4s

--> FOAM Warning : 
    From function void Foam::Function1s::Table<Type>::checkX(Foam::scalar) const [with Type = Foam::Vector2D<double>; Foam::scalar = double]
    in file lnInclude/Table.C at line 107
    "value (5.04178) overflow"

--> FOAM Warning : 
    From function void Foam::Function1s::Table<Type>::checkX(Foam::scalar) const [with Type = Foam::Vector2D<double>; Foam::scalar = double]
    in file lnInclude/Table.C at line 107
    "value (5.04109) overflow"

smoothSolver:  Solving for Ux, Initial residual = 0.210264, Final residual = 0.0106108, No Iterations 1
smoothSolver:  Solving for Uy, Initial residual = 0.210079, Final residual = 0.0103958, No Iterations 1
smoothSolver:  Solving for Uz, Initial residual = 0.214289, Final residual = 0.00943839, No Iterations 1
DICPCG:  Solving for p, Initial residual = 0.0377098, Final residual = 0.00179405, No Iterations 30
time step continuity errors : sum local = 0.0368502, global = -0.0117941, cumulative = -0.0402775
smoothSolver:  Solving for omega, Initial residual = 0.0541204, Final residual = 0.00274195, No Iterations 1
smoothSolver:  Solving for k, Initial residual = 0.173097, Final residual = 0.00898308, No Iterations 1
ExecutionTime = 6.21909 s  ClockTime = 6 s

volFieldValue Uavg_propeller write:
    volAverage(propeller) of U = (0.0949395 -0.0976425 -40.4265)

surfaceFieldValue phi_farField write:
    orientedSum(farField) of phi = 1.45676

surfaceFieldValue phi_top write:
    orientedSum(top) of phi = -2.02287

Time = 5s

--> FOAM Warning : 
    From function void Foam::Function1s::Table<Type>::checkX(Foam::scalar) const [with Type = Foam::Vector2D<double>; Foam::scalar = double]
    in file lnInclude/Table.C at line 107
    "value (3.10973) overflow"

--> FOAM Warning : 
    From function void Foam::Function1s::Table<Type>::checkX(Foam::scalar) const [with Type = Foam::Vector2D<double>; Foam::scalar = double]
    in file lnInclude/Table.C at line 107
    "value (3.1086) overflow"

smoothSolver:  Solving for Ux, Initial residual = 0.158711, Final residual = 0.00815015, No Iterations 1
smoothSolver:  Solving for Uy, Initial residual = 0.158589, Final residual = 0.00796131, No Iterations 1
smoothSolver:  Solving for Uz, Initial residual = 0.179175, Final residual = 0.00796137, No Iterations 1
DICPCG:  Solving for p, Initial residual = 0.0298555, Final residual = 0.001476, No Iterations 28
time step continuity errors : sum local = 0.0513827, global = 0.0163586, cumulative = -0.0239189
smoothSolver:  Solving for omega, Initial residual = 0.0633911, Final residual = 0.00313069, No Iterations 1
smoothSolver:  Solving for k, Initial residual = 0.237185, Final residual = 0.0122168, No Iterations 1
ExecutionTime = 7.06945 s  ClockTime = 7 s

volFieldValue Uavg_propeller write:
    volAverage(propeller) of U = (0.149754 -0.180503 -32.5618)

surfaceFieldValue phi_farField write:
    orientedSum(farField) of phi = 2.64338

surfaceFieldValue phi_top write:
    orientedSum(top) of phi = -1.85817

Time = 6s

--> FOAM Warning : 
    From function void Foam::Function1s::Table<Type>::checkX(Foam::scalar) const [with Type = Foam::Vector2D<double>; Foam::scalar = double]
    in file lnInclude/Table.C at line 107
    "value (2.50475) overflow"

--> FOAM Warning : 
    From function void Foam::Function1s::Table<Type>::checkX(Foam::scalar) const [with Type = Foam::Vector2D<double>; Foam::scalar = double]
    in file lnInclude/Table.C at line 107
    "value (2.50335) overflow"

smoothSolver:  Solving for Ux, Initial residual = 0.111188, Final residual = 0.00572799, No Iterations 1
smoothSolver:  Solving for Uy, Initial residual = 0.111255, Final residual = 0.00560225, No Iterations 1
smoothSolver:  Solving for Uz, Initial residual = 0.125972, Final residual = 0.0058062, No Iterations 1
DICPCG:  Solving for p, Initial residual = 0.0220001, Final residual = 0.00109078, No Iterations 31
time step continuity errors : sum local = 0.0594056, global = 0.0186348, cumulative = -0.00528411
smoothSolver:  Solving for omega, Initial residual = 0.062964, Final residual = 0.00306909, No Iterations 1
smoothSolver:  Solving for k, Initial residual = 0.20847, Final residual = 0.0107853, No Iterations 1
ExecutionTime = 7.87695 s  ClockTime = 8 s

volFieldValue Uavg_propeller write:
    volAverage(propeller) of U = (0.185345 -0.177704 -33.6565)

surfaceFieldValue phi_farField write:
    orientedSum(farField) of phi = 2.83529

surfaceFieldValue phi_top write:
    orientedSum(top) of phi = -1.94082

Time = 7s

--> FOAM Warning : 
    From function void Foam::Function1s::Table<Type>::checkX(Foam::scalar) const [with Type = Foam::Vector2D<double>; Foam::scalar = double]
    in file lnInclude/Table.C at line 107
    "value (2.58896) overflow"

--> FOAM Warning : 
    From function void Foam::Function1s::Table<Type>::checkX(Foam::scalar) const [with Type = Foam::Vector2D<double>; Foam::scalar = double]
    in file lnInclude/Table.C at line 107
    "value (2.58761) overflow"

smoothSolver:  Solving for Ux, Initial residual = 0.0778185, Final residual = 0.00394313, No Iterations 1
smoothSolver:  Solving for Uy, Initial residual = 0.0779539, Final residual = 0.00392079, No Iterations 1
smoothSolver:  Solving for Uz, Initial residual = 0.0724622, Final residual = 0.00348023, No Iterations 1
DICPCG:  Solving for p, Initial residual = 0.0164042, Final residual = 0.00073556, No Iterations 33
time step continuity errors : sum local = 0.0504037, global = 0.0192302, cumulative = 0.0139461
smoothSolver:  Solving for omega, Initial residual = 0.053836, Final residual = 0.00264294, No Iterations 1
smoothSolver:  Solving for k, Initial residual = 0.140844, Final residual = 0.00738023, No Iterations 1
ExecutionTime = 8.67395 s  ClockTime = 9 s

volFieldValue Uavg_propeller write:
    volAverage(propeller) of U = (0.220313 -0.133057 -35.1649)

surfaceFieldValue phi_farField write:
    orientedSum(farField) of phi = 2.98227

surfaceFieldValue phi_top write:
    orientedSum(top) of phi = -2.05922

Time = 8s

--> FOAM Warning : 
    From function void Foam::Function1s::Table<Type>::checkX(Foam::scalar) const [with Type = Foam::Vector2D<double>; Foam::scalar = double]
    in file lnInclude/Table.C at line 107
    "value (2.70499) overflow"

--> FOAM Warning : 
    From function void Foam::Function1s::Table<Type>::checkX(Foam::scalar) const [with Type = Foam::Vector2D<double>; Foam::scalar = double]
    in file lnInclude/Table.C at line 107
    "value (2.70369) overflow"

smoothSolver:  Solving for Ux, Initial residual = 0.087465, Final residual = 0.00423646, No Iterations 1
smoothSolver:  Solving for Uy, Initial residual = 0.0876986, Final residual = 0.00431478, No Iterations 1
smoothSolver:  Solving for Uz, Initial residual = 0.0583325, Final residual = 0.00251935, No Iterations 1
DICPCG:  Solving for p, Initial residual = 0.00861796, Final residual = 0.000415314, No Iterations 32
time step continuity errors : sum local = 0.0437818, global = 0.0184423, cumulative = 0.0323884
smoothSolver:  Solving for omega, Initial residual = 0.0449114, Final residual = 0.00223428, No Iterations 1
smoothSolver:  Solving for k, Initial residual = 0.0988809, Final residual = 0.00519586, No Iterations 1
ExecutionTime = 9.48348 s  ClockTime = 9 s

volFieldValue Uavg_propeller write:
    volAverage(propeller) of U = (0.228004 -0.0576754 -33.6492)

surfaceFieldValue phi_farField write:
    orientedSum(farField) of phi = 2.99337

surfaceFieldValue phi_top write:
    orientedSum(top) of phi = -2.10814

Time = 9s

--> FOAM Warning : 
    From function void Foam::Function1s::Table<Type>::checkX(Foam::scalar) const [with Type = Foam::Vector2D<double>; Foam::scalar = double]
    in file lnInclude/Table.C at line 107
    "value (2.5884) overflow"

--> FOAM Warning : 
    From function void Foam::Function1s::Table<Type>::checkX(Foam::scalar) const [with Type = Foam::Vector2D<double>; Foam::scalar = double]
    in file lnInclude/Table.C at line 107
    "value (2.58705) overflow"

smoothSolver:  Solving for Ux, Initial residual = 0.107113, Final residual = 0.0051901, No Iterations 1
smoothSolver:  Solving for Uy, Initial residual = 0.107305, Final residual = 0.0053296, No Iterations 1
smoothSolver:  Solving for Uz, Initial residual = 0.062862, Final residual = 0.00257264, No Iterations 1
DICPCG:  Solving for p, Initial residual = 0.00766886, Final residual = 0.000334845, No Iterations 28
time step continuity errors : sum local = 0.0330152, global = 0.00256693, cumulative = 0.0349554
smoothSolver:  Solving for omega, Initial residual = 0.0383224, Final residual = 0.00194104, No Iterations 1
smoothSolver:  Solving for k, Initial residual = 0.0766468, Final residual = 0.00403583, No Iterations 1
ExecutionTime = 10.3227 s  ClockTime = 10 s

volFieldValue Uavg_propeller write:
    volAverage(propeller) of U = (0.216123 0.0167203 -29.0183)

surfaceFieldValue phi_farField write:
    orientedSum(farField) of phi = 2.49505

surfaceFieldValue phi_top write:
    orientedSum(top) of phi = -2.37184

Time = 10s

--> FOAM Warning : 
    From function void Foam::Function1s::Table<Type>::checkX(Foam::scalar) const [with Type = Foam::Vector2D<double>; Foam::scalar = double]
    in file lnInclude/Table.C at line 107
    "value (2.23218) overflow"

--> FOAM Warning : 
    From function void Foam::Function1s::Table<Type>::checkX(Foam::scalar) const [with Type = Foam::Vector2D<double>; Foam::scalar = double]
    in file lnInclude/Table.C at line 107
    "value (2.23061) overflow"

smoothSolver:  Solving for Ux, Initial residual = 0.114478, Final residual = 0.00561682, No Iterations 1
smoothSolver:  Solving for Uy, Initial residual = 0.114561, Final residual = 0.00576639, No Iterations 1
smoothSolver:  Solving for Uz, Initial residual = 0.0590947, Final residual = 0.00240689, No Iterations 1
DICPCG:  Solving for p, Initial residual = 0.0113983, Final residual = 0.000564499, No Iterations 21
time step continuity errors : sum local = 0.0383615, global = -0.0111552, cumulative = 0.0238002
smoothSolver:  Solving for omega, Initial residual = 0.0337195, Final residual = 0.00173936, No Iterations 1
smoothSolver:  Solving for k, Initial residual = 0.0642731, Final residual = 0.00338504, No Iterations 1
ExecutionTime = 11.1297 s  ClockTime = 11 s

volFieldValue Uavg_propeller write:
    volAverage(propeller) of U = (0.192407 0.0723056 -22.9316)

surfaceFieldValue phi_farField write:
    orientedSum(farField) of phi = 1.78833

surfaceFieldValue phi_top write:
    orientedSum(top) of phi = -2.32377

Time = 11s

--> FOAM Warning : 
    From function void Foam::Function1s::Table<Type>::checkX(Foam::scalar) const [with Type = Foam::Vector2D<double>; Foam::scalar = double]
    in file lnInclude/Table.C at line 107
    "value (1.76397) overflow"

--> FOAM Warning : 
    From function void Foam::Function1s::Table<Type>::checkX(Foam::scalar) const [with Type = Foam::Vector2D<double>; Foam::scalar = double]
    in file lnInclude/Table.C at line 107
    "value (1.76198) overflow"

smoothSolver:  Solving for Ux, Initial residual = 0.103772, Final residual = 0.0050975, No Iterations 1
smoothSolver:  Solving for Uy, Initial residual = 0.103776, Final residual = 0.00521298, No Iterations 1
smoothSolver:  Solving for Uz, Initial residual = 0.0480593, Final residual = 0.00201064, No Iterations 1
DICPCG:  Solving for p, Initial residual = 0.0123428, Final residual = 0.000598045, No Iterations 29
time step continuity errors : sum local = 0.0366919, global = -0.0109707, cumulative = 0.0128295
smoothSolver:  Solving for omega, Initial residual = 0.0301312, Final residual = 0.00158463, No Iterations 1
smoothSolver:  Solving for k, Initial residual = 0.0555152, Final residual = 0.00293711, No Iterations 1
ExecutionTime = 11.9032 s  ClockTime = 12 s

volFieldValue Uavg_propeller write:
    volAverage(propeller) of U = (0.163405 0.100854 -17.3637)

surfaceFieldValue phi_farField write:
    orientedSum(farField) of phi = 1.92718

surfaceFieldValue phi_top write:
    orientedSum(top) of phi = -2.45377

Time = 12s

--> FOAM Warning : 
    From function void Foam::Function1s::Table<Type>::checkX(Foam::scalar) const [with Type = Foam::Vector2D<double>; Foam::scalar = double]
    in file lnInclude/Table.C at line 107
    "value (1.33567) overflow"

--> FOAM Warning : 
    From function void Foam::Function1s::Table<Type>::checkX(Foam::scalar) const [with Type = Foam::Vector2D<double>; Foam::scalar = double]
    in file lnInclude/Table.C at line 107
    "value (1.33304) overflow"

smoothSolver:  Solving for Ux, Initial residual = 0.0852082, Final residual = 0.00415445, No Iterations 1
smoothSolver:  Solving for Uy, Initial residual = 0.0851139, Final residual = 0.00419109, No Iterations 1
smoothSolver:  Solving for Uz, Initial residual = 0.044416, Final residual = 0.00197731, No Iterations 1
DICPCG:  Solving for p, Initial residual = 0.0156938, Final residual = 0.000731509, No Iterations 30
time step continuity errors : sum local = 0.0311231, global = -0.00843141, cumulative = 0.00439809
smoothSolver:  Solving for omega, Initial residual = 0.0277142, Final residual = 0.00147355, No Iterations 1
smoothSolver:  Solving for k, Initial residual = 0.0497356, Final residual = 0.00262977, No Iterations 1
ExecutionTime = 12.6989 s  ClockTime = 13 s

volFieldValue Uavg_propeller write:
    volAverage(propeller) of U = (0.134058 0.101225 -13.7293)

surfaceFieldValue phi_farField write:
    orientedSum(farField) of phi = 1.99156

surfaceFieldValue phi_top write:
    orientedSum(top) of phi = -2.39627

Time = 13s

--> FOAM Warning : 
    From function void Foam::Function1s::Table<Type>::checkX(Foam::scalar) const [with Type = Foam::Vector2D<double>; Foam::scalar = double]
    in file lnInclude/Table.C at line 107
    "value (1.0561) overflow"

--> FOAM Warning : 
    From function void Foam::Function1s::Table<Type>::checkX(Foam::scalar) const [with Type = Foam::Vector2D<double>; Foam::scalar = double]
    in file lnInclude/Table.C at line 107
    "value (1.05277) overflow"

smoothSolver:  Solving for Ux, Initial residual = 0.070477, Final residual = 0.00338898, No Iterations 1
smoothSolver:  Solving for Uy, Initial residual = 0.0703452, Final residual = 0.00335713, No Iterations 1
smoothSolver:  Solving for Uz, Initial residual = 0.0504837, Final residual = 0.00226667, No Iterations 1
DICPCG:  Solving for p, Initial residual = 0.0195374, Final residual = 0.000923468, No Iterations 28
time step continuity errors : sum local = 0.0273847, global = -0.00455899, cumulative = -0.000160895
smoothSolver:  Solving for omega, Initial residual = 0.0260506, Final residual = 0.00139774, No Iterations 1
smoothSolver:  Solving for k, Initial residual = 0.04581, Final residual = 0.00242291, No Iterations 1
ExecutionTime = 13.4701 s  ClockTime = 13 s

volFieldValue Uavg_propeller write:
    volAverage(propeller) of U = (0.110379 0.0808745 -12.4732)

surfaceFieldValue phi_farField write:
    orientedSum(farField) of phi = 2.06527

surfaceFieldValue phi_top write:
    orientedSum(top) of phi = -2.2841

Time = 14s

--> FOAM Warning : 
    From function void Foam::Function1s::Table<Type>::checkX(Foam::scalar) const [with Type = Foam::Vector2D<double>; Foam::scalar = double]
    in file lnInclude/Table.C at line 107
    "value (0.959475) overflow"

--> FOAM Warning : 
    From function void Foam::Function1s::Table<Type>::checkX(Foam::scalar) const [with Type = Foam::Vector2D<double>; Foam::scalar = double]
    in file lnInclude/Table.C at line 107
    "value (0.955815) overflow"

smoothSolver:  Solving for Ux, Initial residual = 0.0634014, Final residual = 0.00302257, No Iterations 1
smoothSolver:  Solving for Uy, Initial residual = 0.0633095, Final residual = 0.00296743, No Iterations 1
smoothSolver:  Solving for Uz, Initial residual = 0.0556582, Final residual = 0.00241494, No Iterations 1
DICPCG:  Solving for p, Initial residual = 0.0231895, Final residual = 0.0011107, No Iterations 21
time step continuity errors : sum local = 0.0268574, global = 0.00201949, cumulative = 0.00185859
smoothSolver:  Solving for omega, Initial residual = 0.0247358, Final residual = 0.00133627, No Iterations 1
smoothSolver:  Solving for k, Initial residual = 0.0426091, Final residual = 0.00224998, No Iterations 1
ExecutionTime = 14.2724 s  ClockTime = 14 s

volFieldValue Uavg_propeller write:
    volAverage(propeller) of U = (0.0979455 0.0523539 -13.0823)

surfaceFieldValue phi_farField write:
    orientedSum(farField) of phi = 2.20924

surfaceFieldValue phi_top write:
    orientedSum(top) of phi = -2.1123

Time = 15s

--> FOAM Warning : 
    From function void Foam::Function1s::Table<Type>::checkX(Foam::scalar) const [with Type = Foam::Vector2D<double>; Foam::scalar = double]
    in file lnInclude/Table.C at line 107
    "value (1.00633) overflow"

--> FOAM Warning : 
    From function void Foam::Function1s::Table<Type>::checkX(Foam::scalar) const [with Type = Foam::Vector2D<double>; Foam::scalar = double]
    in file lnInclude/Table.C at line 107
    "value (1.00284) overflow"

smoothSolver:  Solving for Ux, Initial residual = 0.0576781, Final residual = 0.00278605, No Iterations 1
smoothSolver:  Solving for Uy, Initial residual = 0.0575573, Final residual = 0.00274279, No Iterations 1
smoothSolver:  Solving for Uz, Initial residual = 0.0544415, Final residual = 0.00231342, No Iterations 1
DICPCG:  Solving for p, Initial residual = 0.0195992, Final residual = 0.000976978, No Iterations 23
time step continuity errors : sum local = 0.0284736, global = 0.0113196, cumulative = 0.0131782
smoothSolver:  Solving for omega, Initial residual = 0.0233335, Final residual = 0.00127111, No Iterations 1
smoothSolver:  Solving for k, Initial residual = 0.0393735, Final residual = 0.0020768, No Iterations 1
ExecutionTime = 15.0264 s  ClockTime = 15 s

volFieldValue Uavg_propeller write:
    volAverage(propeller) of U = (0.0979845 0.0279201 -14.4572)

surfaceFieldValue phi_farField write:
    orientedSum(farField) of phi = 2.74455

surfaceFieldValue phi_top write:
    orientedSum(top) of phi = -2.20121

Time = 16s

--> FOAM Warning : 
    From function void Foam::Function1s::Table<Type>::checkX(Foam::scalar) const [with Type = Foam::Vector2D<double>; Foam::scalar = double]
    in file lnInclude/Table.C at line 107
    "value (1.1121) overflow"

--> FOAM Warning : 
    From function void Foam::Function1s::Table<Type>::checkX(Foam::scalar) const [with Type = Foam::Vector2D<double>; Foam::scalar = double]
    in file lnInclude/Table.C at line 107
    "value (1.10894) overflow"

smoothSolver:  Solving for Ux, Initial residual = 0.0517596, Final residual = 0.00254685, No Iterations 1
smoothSolver:  Solving for Uy, Initial residual = 0.0516001, Final residual = 0.00251762, No Iterations 1
smoothSolver:  Solving for Uz, Initial residual = 0.0462197, Final residual = 0.00196133, No Iterations 1
DICPCG:  Solving for p, Initial residual = 0.0125265, Final residual = 0.000569875, No Iterations 28
time step continuity errors : sum local = 0.0252513, global = 0.00667522, cumulative = 0.0198534
smoothSolver:  Solving for omega, Initial residual = 0.02228, Final residual = 0.00122123, No Iterations 1
smoothSolver:  Solving for k, Initial residual = 0.0374348, Final residual = 0.00197398, No Iterations 1
ExecutionTime = 15.7787 s  ClockTime = 16 s

volFieldValue Uavg_propeller write:
    volAverage(propeller) of U = (0.106589 0.0140923 -15.4408)

surfaceFieldValue phi_farField write:
    orientedSum(farField) of phi = 2.50105

surfaceFieldValue phi_top write:
    orientedSum(top) of phi = -2.18064

Time = 17s

--> FOAM Warning : 
    From function void Foam::Function1s::Table<Type>::checkX(Foam::scalar) const [with Type = Foam::Vector2D<double>; Foam::scalar = double]
    in file lnInclude/Table.C at line 107
    "value (1.18776) overflow"

--> FOAM Warning : 
    From function void Foam::Function1s::Table<Type>::checkX(Foam::scalar) const [with Type = Foam::Vector2D<double>; Foam::scalar = double]
    in file lnInclude/Table.C at line 107
    "value (1.1848) overflow"

smoothSolver:  Solving for Ux, Initial residual = 0.0499271, Final residual = 0.00246854, No Iterations 1
smoothSolver:  Solving for Uy, Initial residual = 0.0498069, Final residual = 0.00244346, No Iterations 1
smoothSolver:  Solving for Uz, Initial residual = 0.0369058, Final residual = 0.001595, No Iterations 1
DICPCG:  Solving for p, Initial residual = 0.00882939, Final residual = 0.000431156, No Iterations 28
time step continuity errors : sum local = 0.0256288, global = 0.00414012, cumulative = 0.0239935
smoothSolver:  Solving for omega, Initial residual = 0.0214428, Final residual = 0.00118044, No Iterations 1
smoothSolver:  Solving for k, Initial residual = 0.0356089, Final residual = 0.0018799, No Iterations 1
ExecutionTime = 16.516 s  ClockTime = 16 s

volFieldValue Uavg_propeller write:
    volAverage(propeller) of U = (0.1163 0.0108729 -15.2513)

surfaceFieldValue phi_farField write:
    orientedSum(farField) of phi = 2.42456

surfaceFieldValue phi_top write:
    orientedSum(top) of phi = -2.22583

Time = 18s

--> FOAM Warning : 
    From function void Foam::Function1s::Table<Type>::checkX(Foam::scalar) const [with Type = Foam::Vector2D<double>; Foam::scalar = double]
    in file lnInclude/Table.C at line 107
    "value (1.17318) overflow"

--> FOAM Warning : 
    From function void Foam::Function1s::Table<Type>::checkX(Foam::scalar) const [with Type = Foam::Vector2D<double>; Foam::scalar = double]
    in file lnInclude/Table.C at line 107
    "value (1.17018) overflow"

smoothSolver:  Solving for Ux, Initial residual = 0.0545778, Final residual = 0.00268155, No Iterations 1
smoothSolver:  Solving for Uy, Initial residual = 0.0545122, Final residual = 0.00265486, No Iterations 1
smoothSolver:  Solving for Uz, Initial residual = 0.0313313, Final residual = 0.00139804, No Iterations 1
DICPCG:  Solving for p, Initial residual = 0.0069732, Final residual = 0.000301208, No Iterations 27
time step continuity errors : sum local = 0.02145, global = -4.34726e-05, cumulative = 0.02395
smoothSolver:  Solving for omega, Initial residual = 0.0207865, Final residual = 0.00114392, No Iterations 1
smoothSolver:  Solving for k, Initial residual = 0.0339923, Final residual = 0.00180131, No Iterations 1
ExecutionTime = 17.3009 s  ClockTime = 17 s

volFieldValue Uavg_propeller write:
    volAverage(propeller) of U = (0.120061 0.0142829 -13.6785)

surfaceFieldValue phi_farField write:
    orientedSum(farField) of phi = 2.31557

surfaceFieldValue phi_top write:
    orientedSum(top) of phi = -2.31765

Time = 19s

--> FOAM Warning : 
    From function void Foam::Function1s::Table<Type>::checkX(Foam::scalar) const [with Type = Foam::Vector2D<double>; Foam::scalar = double]
    in file lnInclude/Table.C at line 107
    "value (1.05219) overflow"

--> FOAM Warning : 
    From function void Foam::Function1s::Table<Type>::checkX(Foam::scalar) const [with Type = Foam::Vector2D<double>; Foam::scalar = double]
    in file lnInclude/Table.C at line 107
    "value (1.04885) overflow"

smoothSolver:  Solving for Ux, Initial residual = 0.0581134, Final residual = 0.00284676, No Iterations 1
smoothSolver:  Solving for Uy, Initial residual = 0.0580702, Final residual = 0.00282578, No Iterations 1
smoothSolver:  Solving for Uz, Initial residual = 0.0302325, Final residual = 0.00136147, No Iterations 1
DICPCG:  Solving for p, Initial residual = 0.00670626, Final residual = 0.000325788, No Iterations 20
time step continuity errors : sum local = 0.0246039, global = 0.00623288, cumulative = 0.0301829
smoothSolver:  Solving for omega, Initial residual = 0.0201175, Final residual = 0.00110882, No Iterations 1
smoothSolver:  Solving for k, Initial residual = 0.032395, Final residual = 0.00172153, No Iterations 1
ExecutionTime = 18.0633 s  ClockTime = 18 s

volFieldValue Uavg_propeller write:
    volAverage(propeller) of U = (0.114995 0.0199686 -11.0247)

surfaceFieldValue phi_farField write:
    orientedSum(farField) of phi = 2.59386

surfaceFieldValue phi_top write:
    orientedSum(top) of phi = -2.29468

Time = 20s

--> FOAM Warning : 
    From function void Foam::Function1s::Table<Type>::checkX(Foam::scalar) const [with Type = Foam::Vector2D<double>; Foam::scalar = double]
    in file lnInclude/Table.C at line 107
    "value (0.848054) overflow"

--> FOAM Warning : 
    From function void Foam::Function1s::Table<Type>::checkX(Foam::scalar) const [with Type = Foam::Vector2D<double>; Foam::scalar = double]
    in file lnInclude/Table.C at line 107
    "value (0.843913) overflow"

smoothSolver:  Solving for Ux, Initial residual = 0.0571334, Final residual = 0.00281729, No Iterations 1
smoothSolver:  Solving for Uy, Initial residual = 0.0570871, Final residual = 0.00280469, No Iterations 1
smoothSolver:  Solving for Uz, Initial residual = 0.0302497, Final residual = 0.00136995, No Iterations 1
DICPCG:  Solving for p, Initial residual = 0.00623223, Final residual = 0.000275472, No Iterations 18
time step continuity errors : sum local = 0.022817, global = 0.00391615, cumulative = 0.0340991
smoothSolver:  Solving for omega, Initial residual = 0.0196622, Final residual = 0.00108811, No Iterations 1
smoothSolver:  Solving for k, Initial residual = 0.0313886, Final residual = 0.00167586, No Iterations 1
ExecutionTime = 19.8196 s  ClockTime = 20 s

volFieldValue Uavg_propeller write:
    volAverage(propeller) of U = (0.103145 0.0245673 -7.88223)

surfaceFieldValue phi_farField write:
    orientedSum(farField) of phi = 2.45396

surfaceFieldValue phi_top write:
    orientedSum(top) of phi = -2.26599

Time = 21s

smoothSolver:  Solving for Ux, Initial residual = 0.0531961, Final residual = 0.00266502, No Iterations 1
smoothSolver:  Solving for Uy, Initial residual = 0.0531611, Final residual = 0.00265639, No Iterations 1
smoothSolver:  Solving for Uz, Initial residual = 0.031135, Final residual = 0.00141769, No Iterations 1
DICPCG:  Solving for p, Initial residual = 0.00755398, Final residual = 0.000368702, No Iterations 18
time step continuity errors : sum local = 0.0253334, global = -0.00352999, cumulative = 0.0305691
smoothSolver:  Solving for omega, Initial residual = 0.0192727, Final residual = 0.00107281, No Iterations 1
smoothSolver:  Solving for k, Initial residual = 0.030741, Final residual = 0.00165026, No Iterations 1
ExecutionTime = 20.6745 s  ClockTime = 21 s

volFieldValue Uavg_propeller write:
    volAverage(propeller) of U = (0.0902358 0.0266364 -5.05806)

surfaceFieldValue phi_farField write:
    orientedSum(farField) of phi = 2.10779

surfaceFieldValue phi_top write:
    orientedSum(top) of phi = -2.27723

Time = 22s

smoothSolver:  Solving for Ux, Initial residual = 0.0487249, Final residual = 0.00249199, No Iterations 1
smoothSolver:  Solving for Uy, Initial residual = 0.0487127, Final residual = 0.00248077, No Iterations 1
smoothSolver:  Solving for Uz, Initial residual = 0.0329144, Final residual = 0.00150864, No Iterations 1
DICPCG:  Solving for p, Initial residual = 0.00889435, Final residual = 0.000434032, No Iterations 20
time step continuity errors : sum local = 0.0240818, global = -0.00737487, cumulative = 0.0231942
smoothSolver:  Solving for omega, Initial residual = 0.0188785, Final residual = 0.00105467, No Iterations 1
smoothSolver:  Solving for k, Initial residual = 0.0301396, Final residual = 0.00162831, No Iterations 1
ExecutionTime = 21.4191 s  ClockTime = 21 s

volFieldValue Uavg_propeller write:
    volAverage(propeller) of U = (0.0752762 0.0140197 -3.30201)

surfaceFieldValue phi_farField write:
    orientedSum(farField) of phi = 1.9167

surfaceFieldValue phi_top write:
    orientedSum(top) of phi = -2.2707

Time = 23s

smoothSolver:  Solving for Ux, Initial residual = 0.0452376, Final residual = 0.00235217, No Iterations 1
smoothSolver:  Solving for Uy, Initial residual = 0.0452232, Final residual = 0.0023354, No Iterations 1
smoothSolver:  Solving for Uz, Initial residual = 0.0341267, Final residual = 0.00157196, No Iterations 1
DICPCG:  Solving for p, Initial residual = 0.00938504, Final residual = 0.000454268, No Iterations 18
time step continuity errors : sum local = 0.0224098, global = -0.00745708, cumulative = 0.0157371
smoothSolver:  Solving for omega, Initial residual = 0.0184414, Final residual = 0.00103304, No Iterations 1
smoothSolver:  Solving for k, Initial residual = 0.0293636, Final residual = 0.00159823, No Iterations 1
ExecutionTime = 22.1158 s  ClockTime = 22 s

volFieldValue Uavg_propeller write:
    volAverage(propeller) of U = (0.102163 0.0462762 -3.08352)

surfaceFieldValue phi_farField write:
    orientedSum(farField) of phi = 1.94198

surfaceFieldValue phi_top write:
    orientedSum(top) of phi = -2.29992

Time = 24s

smoothSolver:  Solving for Ux, Initial residual = 0.0429054, Final residual = 0.00225634, No Iterations 1
smoothSolver:  Solving for Uy, Initial residual = 0.0428768, Final residual = 0.00223484, No Iterations 1
smoothSolver:  Solving for Uz, Initial residual = 0.033745, Final residual = 0.0015638, No Iterations 1
DICPCG:  Solving for p, Initial residual = 0.0093425, Final residual = 0.000433886, No Iterations 13
time step continuity errors : sum local = 0.0206424, global = -0.00823672, cumulative = 0.0075004
smoothSolver:  Solving for omega, Initial residual = 0.0180196, Final residual = 0.00101192, No Iterations 1
smoothSolver:  Solving for k, Initial residual = 0.0287293, Final residual = 0.00157307, No Iterations 1
ExecutionTime = 22.7481 s  ClockTime = 23 s

volFieldValue Uavg_propeller write:
    volAverage(propeller) of U = (0.0108895 0.0645704 -3.27576)

surfaceFieldValue phi_farField write:
    orientedSum(farField) of phi = 1.92901

surfaceFieldValue phi_top write:
    orientedSum(top) of phi = -2.32438

Time = 25s

smoothSolver:  Solving for Ux, Initial residual = 0.0414213, Final residual = 0.00218887, No Iterations 1
smoothSolver:  Solving for Uy, Initial residual = 0.041358, Final residual = 0.00216904, No Iterations 1
smoothSolver:  Solving for Uz, Initial residual = 0.0321347, Final residual = 0.00149645, No Iterations 1
DICPCG:  Solving for p, Initial residual = 0.00860843, Final residual = 0.000412257, No Iterations 12
time step continuity errors : sum local = 0.0208741, global = -0.00279203, cumulative = 0.00470837
smoothSolver:  Solving for omega, Initial residual = 0.0175721, Final residual = 0.000988864, No Iterations 1
smoothSolver:  Solving for k, Initial residual = 0.0281226, Final residual = 0.00154838, No Iterations 1
ExecutionTime = 23.3851 s  ClockTime = 23 s

volFieldValue Uavg_propeller write:
    volAverage(propeller) of U = (0.0287533 0.0377506 -3.95951)

surfaceFieldValue phi_farField write:
    orientedSum(farField) of phi = 2.16146

surfaceFieldValue phi_top write:
    orientedSum(top) of phi = -2.29548

Time = 26s

smoothSolver:  Solving for Ux, Initial residual = 0.0399923, Final residual = 0.00212453, No Iterations 1
smoothSolver:  Solving for Uy, Initial residual = 0.0399078, Final residual = 0.00210233, No Iterations 1
smoothSolver:  Solving for Uz, Initial residual = 0.0297485, Final residual = 0.0013957, No Iterations 1
DICPCG:  Solving for p, Initial residual = 0.0068336, Final residual = 0.000336311, No Iterations 18
time step continuity errors : sum local = 0.0211094, global = 0.00885752, cumulative = 0.0135659
smoothSolver:  Solving for omega, Initial residual = 0.0171691, Final residual = 0.000968904, No Iterations 1
smoothSolver:  Solving for k, Initial residual = 0.0276318, Final residual = 0.00153107, No Iterations 1
ExecutionTime = 24.0356 s  ClockTime = 24 s

volFieldValue Uavg_propeller write:
    volAverage(propeller) of U = (0.0306863 0.0072923 -4.49554)

surfaceFieldValue phi_farField write:
    orientedSum(farField) of phi = 2.70606

surfaceFieldValue phi_top write:
    orientedSum(top) of phi = -2.2809

Time = 27s

smoothSolver:  Solving for Ux, Initial residual = 0.0389089, Final residual = 0.00206331, No Iterations 1
smoothSolver:  Solving for Uy, Initial residual = 0.038844, Final residual = 0.00204439, No Iterations 1
smoothSolver:  Solving for Uz, Initial residual = 0.027638, Final residual = 0.00130949, No Iterations 1
DICPCG:  Solving for p, Initial residual = 0.00624227, Final residual = 0.000285, No Iterations 22
time step continuity errors : sum local = 0.0190308, global = 0.00529997, cumulative = 0.0188659
smoothSolver:  Solving for omega, Initial residual = 0.0169156, Final residual = 0.000956514, No Iterations 1
smoothSolver:  Solving for k, Initial residual = 0.0276186, Final residual = 0.0015386, No Iterations 1
ExecutionTime = 24.7532 s  ClockTime = 25 s

volFieldValue Uavg_propeller write:
    volAverage(propeller) of U = (0.0569214 0.00124651 -4.62175)

surfaceFieldValue phi_farField write:
    orientedSum(farField) of phi = 2.55805

surfaceFieldValue phi_top write:
    orientedSum(top) of phi = -2.30365

Time = 28s

smoothSolver:  Solving for Ux, Initial residual = 0.0379686, Final residual = 0.00201421, No Iterations 1
smoothSolver:  Solving for Uy, Initial residual = 0.0379306, Final residual = 0.00199647, No Iterations 1
smoothSolver:  Solving for Uz, Initial residual = 0.0264114, Final residual = 0.00126695, No Iterations 1
DICPCG:  Solving for p, Initial residual = 0.00610897, Final residual = 0.000286849, No Iterations 22
time step continuity errors : sum local = 0.0192203, global = 0.00452841, cumulative = 0.0233943
smoothSolver:  Solving for omega, Initial residual = 0.0166379, Final residual = 0.000942325, No Iterations 1
smoothSolver:  Solving for k, Initial residual = 0.0277242, Final residual = 0.00154771, No Iterations 1
ExecutionTime = 25.5034 s  ClockTime = 25 s

volFieldValue Uavg_propeller write:
    volAverage(propeller) of U = (0.0709292 0.010483 -4.2682)

surfaceFieldValue phi_farField write:
    orientedSum(farField) of phi = 2.54042

surfaceFieldValue phi_top write:
    orientedSum(top) of phi = -2.32306

Time = 29s

smoothSolver:  Solving for Ux, Initial residual = 0.0369486, Final residual = 0.00196901, No Iterations 1
smoothSolver:  Solving for Uy, Initial residual = 0.0369421, Final residual = 0.00195671, No Iterations 1
smoothSolver:  Solving for Uz, Initial residual = 0.0263755, Final residual = 0.00127694, No Iterations 1
DICPCG:  Solving for p, Initial residual = 0.00613855, Final residual = 0.000305108, No Iterations 18
time step continuity errors : sum local = 0.0201721, global = 0.0104674, cumulative = 0.0338617
smoothSolver:  Solving for omega, Initial residual = 0.016357, Final residual = 0.000927433, No Iterations 1
smoothSolver:  Solving for k, Initial residual = 0.0278869, Final residual = 0.00155837, No Iterations 1
ExecutionTime = 26.2042 s  ClockTime = 26 s

volFieldValue Uavg_propeller write:
    volAverage(propeller) of U = (0.113385 -0.000851025 -3.64832)

surfaceFieldValue phi_farField write:
    orientedSum(farField) of phi = 2.8226

surfaceFieldValue phi_top write:
    orientedSum(top) of phi = -2.32017

Time = 30s

smoothSolver:  Solving for Ux, Initial residual = 0.0356664, Final residual = 0.00192215, No Iterations 1
smoothSolver:  Solving for Uy, Initial residual = 0.0356814, Final residual = 0.00191385, No Iterations 1
smoothSolver:  Solving for Uz, Initial residual = 0.0271782, Final residual = 0.00132289, No Iterations 1
DICPCG:  Solving for p, Initial residual = 0.00655419, Final residual = 0.000301948, No Iterations 17
time step continuity errors : sum local = 0.0182098, global = 0.00852856, cumulative = 0.0423902
smoothSolver:  Solving for omega, Initial residual = 0.0161153, Final residual = 0.000914803, No Iterations 1
smoothSolver:  Solving for k, Initial residual = 0.0281909, Final residual = 0.00157763, No Iterations 1
ExecutionTime = 26.9977 s  ClockTime = 27 s

volFieldValue Uavg_propeller write:
    volAverage(propeller) of U = (0.15122 0.0243826 -2.71981)

surfaceFieldValue phi_farField write:
    orientedSum(farField) of phi = 2.77957

surfaceFieldValue phi_top write:
    orientedSum(top) of phi = -2.3702

Time = 31s

--> FOAM Warning : 
    From function void Foam::Function1s::Table<Type>::checkX(Foam::scalar) const [with Type = Foam::Vector2D<double>; Foam::scalar = double]
    in file lnInclude/Table.C at line 107
    "value (0.0705128) underflow"

smoothSolver:  Solving for Ux, Initial residual = 0.0343101, Final residual = 0.00187774, No Iterations 1
smoothSolver:  Solving for Uy, Initial residual = 0.0343389, Final residual = 0.00187339, No Iterations 1
smoothSolver:  Solving for Uz, Initial residual = 0.028316, Final residual = 0.00138858, No Iterations 1
DICPCG:  Solving for p, Initial residual = 0.00733308, Final residual = 0.000344604, No Iterations 16
time step continuity errors : sum local = 0.0179456, global = 0.00561394, cumulative = 0.0480042
smoothSolver:  Solving for omega, Initial residual = 0.0158788, Final residual = 0.000902385, No Iterations 1
smoothSolver:  Solving for k, Initial residual = 0.0285212, Final residual = 0.00159623, No Iterations 1
ExecutionTime = 27.7248 s  ClockTime = 28 s

volFieldValue Uavg_propeller write:
    volAverage(propeller) of U = (0.142234 0.0806675 -1.88179)

surfaceFieldValue phi_farField write:
    orientedSum(farField) of phi = 2.70222

surfaceFieldValue phi_top write:
    orientedSum(top) of phi = -2.43275

Time = 32s

--> FOAM Warning : 
    From function void Foam::Function1s::Table<Type>::checkX(Foam::scalar) const [with Type = Foam::Vector2D<double>; Foam::scalar = double]
    in file lnInclude/Table.C at line 107
    "value (-0.070215) underflow"

smoothSolver:  Solving for Ux, Initial residual = 0.0331353, Final residual = 0.00183916, No Iterations 1
smoothSolver:  Solving for Uy, Initial residual = 0.0331778, Final residual = 0.00183829, No Iterations 1
smoothSolver:  Solving for Uz, Initial residual = 0.0294337, Final residual = 0.00145403, No Iterations 1
DICPCG:  Solving for p, Initial residual = 0.00794545, Final residual = 0.000384132, No Iterations 15
time step continuity errors : sum local = 0.0177595, global = 0.00236525, cumulative = 0.0503694
smoothSolver:  Solving for omega, Initial residual = 0.0156618, Final residual = 0.000889825, No Iterations 1
smoothSolver:  Solving for k, Initial residual = 0.0288608, Final residual = 0.00161471, No Iterations 1
ExecutionTime = 28.3827 s  ClockTime = 28 s

volFieldValue Uavg_propeller write:
    volAverage(propeller) of U = (0.138559 0.122127 -1.29706)

surfaceFieldValue phi_farField write:
    orientedSum(farField) of phi = 2.60512

surfaceFieldValue phi_top write:
    orientedSum(top) of phi = -2.49158

Time = 33s

--> FOAM Warning : 
    From function void Foam::Function1s::Table<Type>::checkX(Foam::scalar) const [with Type = Foam::Vector2D<double>; Foam::scalar = double]
    in file lnInclude/Table.C at line 107
    "value (0.0997736) underflow"

--> FOAM Warning : 
    From function void Foam::Function1s::Table<Type>::checkX(Foam::scalar) const [with Type = Foam::Vector2D<double>; Foam::scalar = double]
    in file lnInclude/Table.C at line 107
    "value (-0.225938) underflow"

smoothSolver:  Solving for Ux, Initial residual = 0.0322691, Final residual = 0.00180779, No Iterations 1
smoothSolver:  Solving for Uy, Initial residual = 0.0323099, Final residual = 0.00181163, No Iterations 1
smoothSolver:  Solving for Uz, Initial residual = 0.0302665, Final residual = 0.00151747, No Iterations 1
DICPCG:  Solving for p, Initial residual = 0.00848288, Final residual = 0.00038124, No Iterations 15
time step continuity errors : sum local = 0.0161515, global = -0.000509023, cumulative = 0.0498604
smoothSolver:  Solving for omega, Initial residual = 0.0154546, Final residual = 0.000878209, No Iterations 1
smoothSolver:  Solving for k, Initial residual = 0.0292197, Final residual = 0.001633, No Iterations 1
ExecutionTime = 29.0393 s  ClockTime = 29 s

volFieldValue Uavg_propeller write:
    volAverage(propeller) of U = (0.123113 0.119774 -1.09138)

surfaceFieldValue phi_farField write:
    orientedSum(farField) of phi = 2.51382

surfaceFieldValue phi_top write:
    orientedSum(top) of phi = -2.53826

Time = 34s

--> FOAM Warning : 
    From function void Foam::Function1s::Table<Type>::checkX(Foam::scalar) const [with Type = Foam::Vector2D<double>; Foam::scalar = double]
    in file lnInclude/Table.C at line 107
    "value (0.0839527) underflow"

--> FOAM Warning : 
    From function void Foam::Function1s::Table<Type>::checkX(Foam::scalar) const [with Type = Foam::Vector2D<double>; Foam::scalar = double]
    in file lnInclude/Table.C at line 107
    "value (-0.30314) underflow"

smoothSolver:  Solving for Ux, Initial residual = 0.0316355, Final residual = 0.00178565, No Iterations 1
smoothSolver:  Solving for Uy, Initial residual = 0.0316829, Final residual = 0.00179478, No Iterations 1
smoothSolver:  Solving for Uz, Initial residual = 0.03084, Final residual = 0.00157681, No Iterations 1
DICPCG:  Solving for p, Initial residual = 0.00876897, Final residual = 0.000432504, No Iterations 14
time step continuity errors : sum local = 0.0173951, global = -0.00115763, cumulative = 0.0487028
smoothSolver:  Solving for omega, Initial residual = 0.0152569, Final residual = 0.000866042, No Iterations 1
smoothSolver:  Solving for k, Initial residual = 0.0295317, Final residual = 0.00164822, No Iterations 1
ExecutionTime = 29.7656 s  ClockTime = 30 s

volFieldValue Uavg_propeller write:
    volAverage(propeller) of U = (0.10685 0.094269 -1.32858)

surfaceFieldValue phi_farField write:
    orientedSum(farField) of phi = 2.51623

surfaceFieldValue phi_top write:
    orientedSum(top) of phi = -2.5718

Time = 35s

--> FOAM Warning : 
    From function void Foam::Function1s::Table<Type>::checkX(Foam::scalar) const [with Type = Foam::Vector2D<double>; Foam::scalar = double]
    in file lnInclude/Table.C at line 107
    "value (-0.215121) underflow"

smoothSolver:  Solving for Ux, Initial residual = 0.0311816, Final residual = 0.00177273, No Iterations 1
smoothSolver:  Solving for Uy, Initial residual = 0.0312105, Final residual = 0.0017852, No Iterations 1
smoothSolver:  Solving for Uz, Initial residual = 0.0315553, Final residual = 0.00164768, No Iterations 1
DICPCG:  Solving for p, Initial residual = 0.00863496, Final residual = 0.000389126, No Iterations 15
time step continuity errors : sum local = 0.0155615, global = -0.00173798, cumulative = 0.0469648
smoothSolver:  Solving for omega, Initial residual = 0.0150806, Final residual = 0.000854844, No Iterations 1
smoothSolver:  Solving for k, Initial residual = 0.02984, Final residual = 0.00166424, No Iterations 1
ExecutionTime = 30.427 s  ClockTime = 30 s

volFieldValue Uavg_propeller write:
    volAverage(propeller) of U = (0.117803 0.0410592 -1.88752)

surfaceFieldValue phi_farField write:
    orientedSum(farField) of phi = 2.50832

surfaceFieldValue phi_top write:
    orientedSum(top) of phi = -2.59174

Time = 36s

--> FOAM Warning : 
    From function void Foam::Function1s::Table<Type>::checkX(Foam::scalar) const [with Type = Foam::Vector2D<double>; Foam::scalar = double]
    in file lnInclude/Table.C at line 107
    "value (-0.0690287) underflow"

smoothSolver:  Solving for Ux, Initial residual = 0.0307803, Final residual = 0.0017662, No Iterations 1
smoothSolver:  Solving for Uy, Initial residual = 0.0308143, Final residual = 0.00178351, No Iterations 1
smoothSolver:  Solving for Uz, Initial residual = 0.0325755, Final residual = 0.00174282, No Iterations 1
DICPCG:  Solving for p, Initial residual = 0.0080436, Final residual = 0.000401145, No Iterations 15
time step continuity errors : sum local = 0.0169557, global = -0.000704338, cumulative = 0.0462604
smoothSolver:  Solving for omega, Initial residual = 0.0149024, Final residual = 0.000843132, No Iterations 1
smoothSolver:  Solving for k, Initial residual = 0.0301045, Final residual = 0.00167789, No Iterations 1
ExecutionTime = 31.102 s  ClockTime = 31 s

volFieldValue Uavg_propeller write:
    volAverage(propeller) of U = (0.105139 0.0115303 -2.40502)

surfaceFieldValue phi_farField write:
    orientedSum(farField) of phi = 2.56403

surfaceFieldValue phi_top write:
    orientedSum(top) of phi = -2.59784

Time = 37s

--> FOAM Warning : 
    From function void Foam::Function1s::Table<Type>::checkX(Foam::scalar) const [with Type = Foam::Vector2D<double>; Foam::scalar = double]
    in file lnInclude/Table.C at line 107
    "value (0.0238105) underflow"

smoothSolver:  Solving for Ux, Initial residual = 0.0304721, Final residual = 0.0017688, No Iterations 1
smoothSolver:  Solving for Uy, Initial residual = 0.030503, Final residual = 0.00178926, No Iterations 1
smoothSolver:  Solving for Uz, Initial residual = 0.0338721, Final residual = 0.00185672, No Iterations 1
DICPCG:  Solving for p, Initial residual = 0.00738569, Final residual = 0.000343796, No Iterations 16
time step continuity errors : sum local = 0.0157993, global = 5.03711e-05, cumulative = 0.0463108
smoothSolver:  Solving for omega, Initial residual = 0.0147529, Final residual = 0.000833117, No Iterations 1
smoothSolver:  Solving for k, Initial residual = 0.0304105, Final residual = 0.00169255, No Iterations 1
ExecutionTime = 31.7647 s  ClockTime = 32 s

volFieldValue Uavg_propeller write:
    volAverage(propeller) of U = (0.096674 0.00667958 -2.62788)

surfaceFieldValue phi_farField write:
    orientedSum(farField) of phi = 2.58906

surfaceFieldValue phi_top write:
    orientedSum(top) of phi = -2.58664

Time = 38s

--> FOAM Warning : 
    From function void Foam::Function1s::Table<Type>::checkX(Foam::scalar) const [with Type = Foam::Vector2D<double>; Foam::scalar = double]
    in file lnInclude/Table.C at line 107
    "value (0.0573928) underflow"

smoothSolver:  Solving for Ux, Initial residual = 0.0303658, Final residual = 0.00178031, No Iterations 1
smoothSolver:  Solving for Uy, Initial residual = 0.0304014, Final residual = 0.00180371, No Iterations 1
smoothSolver:  Solving for Uz, Initial residual = 0.0354113, Final residual = 0.0019865, No Iterations 1
DICPCG:  Solving for p, Initial residual = 0.00692355, Final residual = 0.000332775, No Iterations 16
time step continuity errors : sum local = 0.0165351, global = 0.000625468, cumulative = 0.0469363
smoothSolver:  Solving for omega, Initial residual = 0.0146265, Final residual = 0.000824024, No Iterations 1
smoothSolver:  Solving for k, Initial residual = 0.0307402, Final residual = 0.00170911, No Iterations 1
ExecutionTime = 32.3977 s  ClockTime = 32 s

volFieldValue Uavg_propeller write:
    volAverage(propeller) of U = (0.0892852 0.0120362 -2.51182)

surfaceFieldValue phi_farField write:
    orientedSum(farField) of phi = 2.60052

surfaceFieldValue phi_top write:
    orientedSum(top) of phi = -2.5705

Time = 39s

--> FOAM Warning : 
    From function void Foam::Function1s::Table<Type>::checkX(Foam::scalar) const [with Type = Foam::Vector2D<double>; Foam::scalar = double]
    in file lnInclude/Table.C at line 107
    "value (0.0402577) underflow"

smoothSolver:  Solving for Ux, Initial residual = 0.0305217, Final residual = 0.00180356, No Iterations 1
smoothSolver:  Solving for Uy, Initial residual = 0.0305651, Final residual = 0.00183075, No Iterations 1
smoothSolver:  Solving for Uz, Initial residual = 0.0371204, Final residual = 0.0021249, No Iterations 1
DICPCG:  Solving for p, Initial residual = 0.00626172, Final residual = 0.000309257, No Iterations 16
time step continuity errors : sum local = 0.0172942, global = 0.000202734, cumulative = 0.047139
smoothSolver:  Solving for omega, Initial residual = 0.0145254, Final residual = 0.00081577, No Iterations 1
smoothSolver:  Solving for k, Initial residual = 0.0310833, Final residual = 0.00172619, No Iterations 1
ExecutionTime = 33.1072 s  ClockTime = 33 s

volFieldValue Uavg_propeller write:
    volAverage(propeller) of U = (0.0841421 0.0208359 -2.16511)

surfaceFieldValue phi_farField write:
    orientedSum(farField) of phi = 2.55964

surfaceFieldValue phi_top write:
    orientedSum(top) of phi = -2.54991

Time = 40s

--> FOAM Warning : 
    From function void Foam::Function1s::Table<Type>::checkX(Foam::scalar) const [with Type = Foam::Vector2D<double>; Foam::scalar = double]
    in file lnInclude/Table.C at line 107
    "value (-0.0160988) underflow"

smoothSolver:  Solving for Ux, Initial residual = 0.0308687, Final residual = 0.00183409, No Iterations 1
smoothSolver:  Solving for Uy, Initial residual = 0.0309359, Final residual = 0.00186321, No Iterations 1
smoothSolver:  Solving for Uz, Initial residual = 0.0389007, Final residual = 0.00225934, No Iterations 1
DICPCG:  Solving for p, Initial residual = 0.00648515, Final residual = 0.000302972, No Iterations 17
time step continuity errors : sum local = 0.0166048, global = -0.00210443, cumulative = 0.0450346
smoothSolver:  Solving for omega, Initial residual = 0.0144543, Final residual = 0.000807895, No Iterations 1
smoothSolver:  Solving for k, Initial residual = 0.0314385, Final residual = 0.00174301, No Iterations 1
ExecutionTime = 34.8325 s  ClockTime = 35 s

volFieldValue Uavg_propeller write:
    volAverage(propeller) of U = (0.0804476 0.0289036 -1.7578)

surfaceFieldValue phi_farField write:
    orientedSum(farField) of phi = 2.43083

surfaceFieldValue phi_top write:
    orientedSum(top) of phi = -2.53184

Time = 41s

--> FOAM Warning : 
    From function void Foam::Function1s::Table<Type>::checkX(Foam::scalar) const [with Type = Foam::Vector2D<double>; Foam::scalar = double]
    in file lnInclude/Table.C at line 107
    "value (-0.0970927) underflow"

smoothSolver:  Solving for Ux, Initial residual = 0.0313791, Final residual = 0.00186892, No Iterations 1
smoothSolver:  Solving for Uy, Initial residual = 0.031452, Final residual = 0.00190026, No Iterations 1
smoothSolver:  Solving for Uz, Initial residual = 0.0405128, Final residual = 0.00238093, No Iterations 1
DICPCG:  Solving for p, Initial residual = 0.00680414, Final residual = 0.000323286, No Iterations 18
time step continuity errors : sum local = 0.0169733, global = -0.00513801, cumulative = 0.0398966
smoothSolver:  Solving for omega, Initial residual = 0.0144148, Final residual = 0.000800372, No Iterations 1
smoothSolver:  Solving for k, Initial residual = 0.0317949, Final residual = 0.00175856, No Iterations 1
ExecutionTime = 35.5794 s  ClockTime = 36 s

volFieldValue Uavg_propeller write:
    volAverage(propeller) of U = (0.0787652 0.0354011 -1.41943)

surfaceFieldValue phi_farField write:
    orientedSum(farField) of phi = 2.27264

surfaceFieldValue phi_top write:
    orientedSum(top) of phi = -2.51927

Time = 42s

--> FOAM Warning : 
    From function void Foam::Function1s::Table<Type>::checkX(Foam::scalar) const [with Type = Foam::Vector2D<double>; Foam::scalar = double]
    in file lnInclude/Table.C at line 107
    "value (-0.185849) underflow"

smoothSolver:  Solving for Ux, Initial residual = 0.0320219, Final residual = 0.00190813, No Iterations 1
smoothSolver:  Solving for Uy, Initial residual = 0.0320978, Final residual = 0.00194059, No Iterations 1
smoothSolver:  Solving for Uz, Initial residual = 0.0418835, Final residual = 0.00248634, No Iterations 1
DICPCG:  Solving for p, Initial residual = 0.00756514, Final residual = 0.000367033, No Iterations 20
time step continuity errors : sum local = 0.017291, global = -0.00800382, cumulative = 0.0318928
smoothSolver:  Solving for omega, Initial residual = 0.014418, Final residual = 0.000793204, No Iterations 1
smoothSolver:  Solving for k, Initial residual = 0.0321243, Final residual = 0.00176978, No Iterations 1
ExecutionTime = 36.2976 s  ClockTime = 36 s

volFieldValue Uavg_propeller write:
    volAverage(propeller) of U = (0.0767952 0.0422937 -1.21544)

surfaceFieldValue phi_farField write:
    orientedSum(farField) of phi = 2.11796

surfaceFieldValue phi_top write:
    orientedSum(top) of phi = -2.50214

Time = 43s

--> FOAM Warning : 
    From function void Foam::Function1s::Table<Type>::checkX(Foam::scalar) const [with Type = Foam::Vector2D<double>; Foam::scalar = double]
    in file lnInclude/Table.C at line 107
    "value (0.0934951) underflow"

--> FOAM Warning : 
    From function void Foam::Function1s::Table<Type>::checkX(Foam::scalar) const [with Type = Foam::Vector2D<double>; Foam::scalar = double]
    in file lnInclude/Table.C at line 107
    "value (-0.254089) underflow"

smoothSolver:  Solving for Ux, Initial residual = 0.0327299, Final residual = 0.00194717, No Iterations 1
smoothSolver:  Solving for Uy, Initial residual = 0.0328007, Final residual = 0.00198042, No Iterations 1
smoothSolver:  Solving for Uz, Initial residual = 0.0431327, Final residual = 0.00257976, No Iterations 1
DICPCG:  Solving for p, Initial residual = 0.00907671, Final residual = 0.000446362, No Iterations 22
time step continuity errors : sum local = 0.0175327, global = -0.00700507, cumulative = 0.0248877
smoothSolver:  Solving for omega, Initial residual = 0.0144519, Final residual = 0.000786167, No Iterations 1
smoothSolver:  Solving for k, Initial residual = 0.03241, Final residual = 0.00177689, No Iterations 1
ExecutionTime = 37.0861 s  ClockTime = 37 s

volFieldValue Uavg_propeller write:
    volAverage(propeller) of U = (0.0738314 0.0518268 -1.15519)

surfaceFieldValue phi_farField write:
    orientedSum(farField) of phi = 2.10507

surfaceFieldValue phi_top write:
    orientedSum(top) of phi = -2.44132

Time = 44s

--> FOAM Warning : 
    From function void Foam::Function1s::Table<Type>::checkX(Foam::scalar) const [with Type = Foam::Vector2D<double>; Foam::scalar = double]
    in file lnInclude/Table.C at line 107
    "value (0.0888605) underflow"

--> FOAM Warning : 
    From function void Foam::Function1s::Table<Type>::checkX(Foam::scalar) const [with Type = Foam::Vector2D<double>; Foam::scalar = double]
    in file lnInclude/Table.C at line 107
    "value (-0.276853) underflow"

smoothSolver:  Solving for Ux, Initial residual = 0.0334346, Final residual = 0.00198391, No Iterations 1
smoothSolver:  Solving for Uy, Initial residual = 0.0335035, Final residual = 0.00201829, No Iterations 1
smoothSolver:  Solving for Uz, Initial residual = 0.0443192, Final residual = 0.00266553, No Iterations 1
DICPCG:  Solving for p, Initial residual = 0.0104803, Final residual = 0.000510631, No Iterations 22
time step continuity errors : sum local = 0.0176341, global = -0.0054549, cumulative = 0.0194328
smoothSolver:  Solving for omega, Initial residual = 0.0145225, Final residual = 0.000780235, No Iterations 1
smoothSolver:  Solving for k, Initial residual = 0.0326764, Final residual = 0.00178306, No Iterations 1
ExecutionTime = 37.8332 s  ClockTime = 38 s

volFieldValue Uavg_propeller write:
    volAverage(propeller) of U = (0.0702465 0.063096 -1.19983)

surfaceFieldValue phi_farField write:
    orientedSum(farField) of phi = 2.08456

surfaceFieldValue phi_top write:
    orientedSum(top) of phi = -2.34639

Time = 45s

--> FOAM Warning : 
    From function void Foam::Function1s::Table<Type>::checkX(Foam::scalar) const [with Type = Foam::Vector2D<double>; Foam::scalar = double]
    in file lnInclude/Table.C at line 107
    "value (0.0922945) underflow"

--> FOAM Warning : 
    From function void Foam::Function1s::Table<Type>::checkX(Foam::scalar) const [with Type = Foam::Vector2D<double>; Foam::scalar = double]
    in file lnInclude/Table.C at line 107
    "value (-0.259811) underflow"

smoothSolver:  Solving for Ux, Initial residual = 0.0340615, Final residual = 0.0020154, No Iterations 1
smoothSolver:  Solving for Uy, Initial residual = 0.0341272, Final residual = 0.00205037, No Iterations 1
smoothSolver:  Solving for Uz, Initial residual = 0.0454206, Final residual = 0.00274519, No Iterations 1
DICPCG:  Solving for p, Initial residual = 0.0125041, Final residual = 0.000611088, No Iterations 16
time step continuity errors : sum local = 0.0181306, global = -0.0087301, cumulative = 0.0107027
smoothSolver:  Solving for omega, Initial residual = 0.0146145, Final residual = 0.000775216, No Iterations 1
smoothSolver:  Solving for k, Initial residual = 0.0327823, Final residual = 0.00178217, No Iterations 1
ExecutionTime = 38.5215 s  ClockTime = 38 s

volFieldValue Uavg_propeller write:
    volAverage(propeller) of U = (0.0671998 0.0740036 -1.29004)

surfaceFieldValue phi_farField write:
    orientedSum(farField) of phi = 1.88247

surfaceFieldValue phi_top write:
    orientedSum(top) of phi = -2.30152

Time = 46s

--> FOAM Warning : 
    From function void Foam::Function1s::Table<Type>::checkX(Foam::scalar) const [with Type = Foam::Vector2D<double>; Foam::scalar = double]
    in file lnInclude/Table.C at line 107
    "value (0.0992342) underflow"

--> FOAM Warning : 
    From function void Foam::Function1s::Table<Type>::checkX(Foam::scalar) const [with Type = Foam::Vector2D<double>; Foam::scalar = double]
    in file lnInclude/Table.C at line 107
    "value (-0.228248) underflow"

smoothSolver:  Solving for Ux, Initial residual = 0.0345634, Final residual = 0.00203904, No Iterations 1
smoothSolver:  Solving for Uy, Initial residual = 0.0346254, Final residual = 0.00207399, No Iterations 1
smoothSolver:  Solving for Uz, Initial residual = 0.0462855, Final residual = 0.00281, No Iterations 1
DICPCG:  Solving for p, Initial residual = 0.0140769, Final residual = 0.000678813, No Iterations 17
time step continuity errors : sum local = 0.0180935, global = -0.0093823, cumulative = 0.00132038
smoothSolver:  Solving for omega, Initial residual = 0.0147455, Final residual = 0.000772344, No Iterations 1
smoothSolver:  Solving for k, Initial residual = 0.0330686, Final residual = 0.00178633, No Iterations 1
ExecutionTime = 39.1732 s  ClockTime = 39 s

volFieldValue Uavg_propeller write:
    volAverage(propeller) of U = (0.0649963 0.0835829 -1.36977)

surfaceFieldValue phi_farField write:
    orientedSum(farField) of phi = 1.73055

surfaceFieldValue phi_top write:
    orientedSum(top) of phi = -2.1809

Time = 47s

--> FOAM Warning : 
    From function void Foam::Function1s::Table<Type>::checkX(Foam::scalar) const [with Type = Foam::Vector2D<double>; Foam::scalar = double]
    in file lnInclude/Table.C at line 107
    "value (-0.201485) underflow"

smoothSolver:  Solving for Ux, Initial residual = 0.0350432, Final residual = 0.00205975, No Iterations 1
smoothSolver:  Solving for Uy, Initial residual = 0.0350973, Final residual = 0.00209368, No Iterations 1
smoothSolver:  Solving for Uz, Initial residual = 0.0472742, Final residual = 0.00287265, No Iterations 1
DICPCG:  Solving for p, Initial residual = 0.0153204, Final residual = 0.000738843, No Iterations 23
time step continuity errors : sum local = 0.0184028, global = -0.00313443, cumulative = -0.00181405
smoothSolver:  Solving for omega, Initial residual = 0.0149146, Final residual = 0.000771966, No Iterations 1
smoothSolver:  Solving for k, Initial residual = 0.033463, Final residual = 0.00179261, No Iterations 1
ExecutionTime = 39.9561 s  ClockTime = 40 s

volFieldValue Uavg_propeller write:
    volAverage(propeller) of U = (0.0631216 0.0879628 -1.40486)

surfaceFieldValue phi_farField write:
    orientedSum(farField) of phi = 1.79867

surfaceFieldValue phi_top write:
    orientedSum(top) of phi = -1.94913

Time = 48s

--> FOAM Warning : 
    From function void Foam::Function1s::Table<Type>::checkX(Foam::scalar) const [with Type = Foam::Vector2D<double>; Foam::scalar = double]
    in file lnInclude/Table.C at line 107
    "value (-0.19035) underflow"

smoothSolver:  Solving for Ux, Initial residual = 0.0355412, Final residual = 0.00207968, No Iterations 1
smoothSolver:  Solving for Uy, Initial residual = 0.0355872, Final residual = 0.00211245, No Iterations 1
smoothSolver:  Solving for Uz, Initial residual = 0.0485709, Final residual = 0.00294146, No Iterations 1
DICPCG:  Solving for p, Initial residual = 0.0215841, Final residual = 0.00105381, No Iterations 17
time step continuity errors : sum local = 0.0189335, global = -0.00959063, cumulative = -0.0114047
smoothSolver:  Solving for omega, Initial residual = 0.0151114, Final residual = 0.000774773, No Iterations 1
smoothSolver:  Solving for k, Initial residual = 0.0336887, Final residual = 0.00179358, No Iterations 1
ExecutionTime = 40.6801 s  ClockTime = 41 s

volFieldValue Uavg_propeller write:
    volAverage(propeller) of U = (0.0625643 0.0884906 -1.40429)

surfaceFieldValue phi_farField write:
    orientedSum(farField) of phi = 1.38527

surfaceFieldValue phi_top write:
    orientedSum(top) of phi = -1.84562

Time = 49s

--> FOAM Warning : 
    From function void Foam::Function1s::Table<Type>::checkX(Foam::scalar) const [with Type = Foam::Vector2D<double>; Foam::scalar = double]
    in file lnInclude/Table.C at line 107
    "value (-0.190529) underflow"

smoothSolver:  Solving for Ux, Initial residual = 0.0359585, Final residual = 0.0020962, No Iterations 1
smoothSolver:  Solving for Uy, Initial residual = 0.0360096, Final residual = 0.00212758, No Iterations 1
smoothSolver:  Solving for Uz, Initial residual = 0.0496114, Final residual = 0.0029933, No Iterations 1
DICPCG:  Solving for p, Initial residual = 0.026278, Final residual = 0.00127814, No Iterations 18
time step continuity errors : sum local = 0.0190689, global = -0.00946154, cumulative = -0.0208662
smoothSolver:  Solving for omega, Initial residual = 0.0153451, Final residual = 0.000781715, No Iterations 1
smoothSolver:  Solving for k, Initial residual = 0.0340717, Final residual = 0.00179861, No Iterations 1
ExecutionTime = 41.4033 s  ClockTime = 41 s

volFieldValue Uavg_propeller write:
    volAverage(propeller) of U = (0.0633614 0.0856543 -1.38526)

surfaceFieldValue phi_farField write:
    orientedSum(farField) of phi = 1.17633

surfaceFieldValue phi_top write:
    orientedSum(top) of phi = -1.63048

Time = 50s

--> FOAM Warning : 
    From function void Foam::Function1s::Table<Type>::checkX(Foam::scalar) const [with Type = Foam::Vector2D<double>; Foam::scalar = double]
    in file lnInclude/Table.C at line 107
    "value (-0.196517) underflow"

smoothSolver:  Solving for Ux, Initial residual = 0.0363843, Final residual = 0.00211374, No Iterations 1
smoothSolver:  Solving for Uy, Initial residual = 0.0364293, Final residual = 0.00214339, No Iterations 1
smoothSolver:  Solving for Uz, Initial residual = 0.0506789, Final residual = 0.00304771, No Iterations 1
DICPCG:  Solving for p, Initial residual = 0.0331581, Final residual = 0.00161079, No Iterations 19
time step continuity errors : sum local = 0.0193192, global = -0.00918292, cumulative = -0.0300491
smoothSolver:  Solving for omega, Initial residual = 0.0156367, Final residual = 0.000791391, No Iterations 1
smoothSolver:  Solving for k, Initial residual = 0.0344522, Final residual = 0.00180268, No Iterations 1
ExecutionTime = 42.0913 s  ClockTime = 42 s

volFieldValue Uavg_propeller write:
    volAverage(propeller) of U = (0.0627594 0.083516 -1.36929)

surfaceFieldValue phi_farField write:
    orientedSum(farField) of phi = 0.949822

surfaceFieldValue phi_top write:
    orientedSum(top) of phi = -1.3906

Time = 51s

--> FOAM Warning : 
    From function void Foam::Function1s::Table<Type>::checkX(Foam::scalar) const [with Type = Foam::Vector2D<double>; Foam::scalar = double]
    in file lnInclude/Table.C at line 107
    "value (-0.201638) underflow"

smoothSolver:  Solving for Ux, Initial residual = 0.0367857, Final residual = 0.00213149, No Iterations 1
smoothSolver:  Solving for Uy, Initial residual = 0.0368395, Final residual = 0.00216079, No Iterations 1
smoothSolver:  Solving for Uz, Initial residual = 0.0517127, Final residual = 0.00310741, No Iterations 1
DICPCG:  Solving for p, Initial residual = 0.0450619, Final residual = 0.00217196, No Iterations 19
time step continuity errors : sum local = 0.0196681, global = -0.00961694, cumulative = -0.0396661
smoothSolver:  Solving for omega, Initial residual = 0.0159413, Final residual = 0.000805045, No Iterations 1
smoothSolver:  Solving for k, Initial residual = 0.0348488, Final residual = 0.00180658, No Iterations 1
ExecutionTime = 42.8354 s  ClockTime = 43 s

volFieldValue Uavg_propeller write:
    volAverage(propeller) of U = (0.0583179 0.0828712 -1.36384)

surfaceFieldValue phi_farField write:
    orientedSum(farField) of phi = 0.654663

surfaceFieldValue phi_top write:
    orientedSum(top) of phi = -1.11628

Time = 52s

--> FOAM Warning : 
    From function void Foam::Function1s::Table<Type>::checkX(Foam::scalar) const [with Type = Foam::Vector2D<double>; Foam::scalar = double]
    in file lnInclude/Table.C at line 107
    "value (-0.20341) underflow"

smoothSolver:  Solving for Ux, Initial residual = 0.0371321, Final residual = 0.00214888, No Iterations 1
smoothSolver:  Solving for Uy, Initial residual = 0.0371789, Final residual = 0.00217759, No Iterations 1
smoothSolver:  Solving for Uz, Initial residual = 0.0527653, Final residual = 0.00317026, No Iterations 1
DICPCG:  Solving for p, Initial residual = 0.0631082, Final residual = 0.00299342, No Iterations 19
time step continuity errors : sum local = 0.0202518, global = -0.0096938, cumulative = -0.0493599
smoothSolver:  Solving for omega, Initial residual = 0.016329, Final residual = 0.000823148, No Iterations 1
smoothSolver:  Solving for k, Initial residual = 0.0352746, Final residual = 0.00181044, No Iterations 1
ExecutionTime = 43.4997 s  ClockTime = 43 s

volFieldValue Uavg_propeller write:
    volAverage(propeller) of U = (0.0484056 0.0828196 -1.36698)

surfaceFieldValue phi_farField write:
    orientedSum(farField) of phi = 0.324884

surfaceFieldValue phi_top write:
    orientedSum(top) of phi = -0.790186

Time = 53s

--> FOAM Warning : 
    From function void Foam::Function1s::Table<Type>::checkX(Foam::scalar) const [with Type = Foam::Vector2D<double>; Foam::scalar = double]
    in file lnInclude/Table.C at line 107
    "value (-0.202389) underflow"

smoothSolver:  Solving for Ux, Initial residual = 0.0374248, Final residual = 0.00216535, No Iterations 1
smoothSolver:  Solving for Uy, Initial residual = 0.037442, Final residual = 0.00219303, No Iterations 1
smoothSolver:  Solving for Uz, Initial residual = 0.0539595, Final residual = 0.00323563, No Iterations 1
DICPCG:  Solving for p, Initial residual = 0.0926043, Final residual = 0.00417934, No Iterations 19
time step continuity errors : sum local = 0.0198967, global = -0.00911074, cumulative = -0.0584706
smoothSolver:  Solving for omega, Initial residual = 0.0167478, Final residual = 0.000844852, No Iterations 1
smoothSolver:  Solving for k, Initial residual = 0.0356664, Final residual = 0.00181246, No Iterations 1
ExecutionTime = 44.2153 s  ClockTime = 44 s

volFieldValue Uavg_propeller write:
    volAverage(propeller) of U = (0.0335706 0.0838334 -1.37438)

surfaceFieldValue phi_farField write:
    orientedSum(farField) of phi = -0.0350105

surfaceFieldValue phi_top write:
    orientedSum(top) of phi = -0.402305

Time = 54s

--> FOAM Warning : 
    From function void Foam::Function1s::Table<Type>::checkX(Foam::scalar) const [with Type = Foam::Vector2D<double>; Foam::scalar = double]
    in file lnInclude/Table.C at line 107
    "value (-0.199997) underflow"

smoothSolver:  Solving for Ux, Initial residual = 0.0376277, Final residual = 0.0021799, No Iterations 1
smoothSolver:  Solving for Uy, Initial residual = 0.03763, Final residual = 0.00220665, No Iterations 1
smoothSolver:  Solving for Uz, Initial residual = 0.0553212, Final residual = 0.00331028, No Iterations 1
DICPCG:  Solving for p, Initial residual = 0.148156, Final residual = 0.00685612, No Iterations 18
time step continuity errors : sum local = 0.0206362, global = -0.00913096, cumulative = -0.0676016
smoothSolver:  Solving for omega, Initial residual = 0.017197, Final residual = 0.000869347, No Iterations 1
smoothSolver:  Solving for k, Initial residual = 0.0359535, Final residual = 0.00181037, No Iterations 1
ExecutionTime = 44.9378 s  ClockTime = 45 s

volFieldValue Uavg_propeller write:
    volAverage(propeller) of U = (0.016183 0.0860082 -1.37846)

surfaceFieldValue phi_farField write:
    orientedSum(farField) of phi = -0.470388

surfaceFieldValue phi_top write:
    orientedSum(top) of phi = 0.0321018

Time = 55s

--> FOAM Warning : 
    From function void Foam::Function1s::Table<Type>::checkX(Foam::scalar) const [with Type = Foam::Vector2D<double>; Foam::scalar = double]
    in file lnInclude/Table.C at line 107
    "value (-0.198688) underflow"

smoothSolver:  Solving for Ux, Initial residual = 0.0377721, Final residual = 0.00219233, No Iterations 1
smoothSolver:  Solving for Uy, Initial residual = 0.0377742, Final residual = 0.00221782, No Iterations 1
smoothSolver:  Solving for Uz, Initial residual = 0.0568248, Final residual = 0.00339438, No Iterations 1
DICPCG:  Solving for p, Initial residual = 0.300438, Final residual = 0.0131907, No Iterations 17
time step continuity errors : sum local = 0.0196839, global = -0.00880964, cumulative = -0.0764112
smoothSolver:  Solving for omega, Initial residual = 0.0176758, Final residual = 0.000895419, No Iterations 1
smoothSolver:  Solving for k, Initial residual = 0.0360859, Final residual = 0.00180128, No Iterations 1
ExecutionTime = 45.6386 s  ClockTime = 46 s

volFieldValue Uavg_propeller write:
    volAverage(propeller) of U = (-0.000536976 0.0872857 -1.37106)

surfaceFieldValue phi_farField write:
    orientedSum(farField) of phi = -0.941719

surfaceFieldValue phi_top write:
    orientedSum(top) of phi = 0.518856

Time = 56s

--> FOAM Warning : 
    From function void Foam::Function1s::Table<Type>::checkX(Foam::scalar) const [with Type = Foam::Vector2D<double>; Foam::scalar = double]
    in file lnInclude/Table.C at line 107
    "value (-0.201067) underflow"

smoothSolver:  Solving for Ux, Initial residual = 0.0378882, Final residual = 0.00220368, No Iterations 1
smoothSolver:  Solving for Uy, Initial residual = 0.0379135, Final residual = 0.00222817, No Iterations 1
smoothSolver:  Solving for Uz, Initial residual = 0.0582585, Final residual = 0.00347677, No Iterations 1
DICPCG:  Solving for p, Initial residual = 0.354545, Final residual = 0.0171961, No Iterations 16
time step continuity errors : sum local = 0.022147, global = -0.00879415, cumulative = -0.0852054
smoothSolver:  Solving for omega, Initial residual = 0.0181813, Final residual = 0.000921413, No Iterations 1
smoothSolver:  Solving for k, Initial residual = 0.0359669, Final residual = 0.00177873, No Iterations 1
ExecutionTime = 46.3398 s  ClockTime = 46 s

volFieldValue Uavg_propeller write:
    volAverage(propeller) of U = (-0.0102722 0.0791398 -1.33746)

surfaceFieldValue phi_farField write:
    orientedSum(farField) of phi = -1.4488

surfaceFieldValue phi_top write:
    orientedSum(top) of phi = 1.02668

Time = 57s

--> FOAM Warning : 
    From function void Foam::Function1s::Table<Type>::checkX(Foam::scalar) const [with Type = Foam::Vector2D<double>; Foam::scalar = double]
    in file lnInclude/Table.C at line 107
    "value (-0.212126) underflow"

smoothSolver:  Solving for Ux, Initial residual = 0.0379903, Final residual = 0.00221601, No Iterations 1
smoothSolver:  Solving for Uy, Initial residual = 0.038041, Final residual = 0.00223799, No Iterations 1
smoothSolver:  Solving for Uz, Initial residual = 0.0594391, Final residual = 0.00354936, No Iterations 1
DICPCG:  Solving for p, Initial residual = 0.185646, Final residual = 0.00912726, No Iterations 17
time step continuity errors : sum local = 0.023092, global = -0.00929166, cumulative = -0.094497
smoothSolver:  Solving for omega, Initial residual = 0.0186491, Final residual = 0.000945825, No Iterations 1
smoothSolver:  Solving for k, Initial residual = 0.0356545, Final residual = 0.00174401, No Iterations 1
ExecutionTime = 47.0669 s  ClockTime = 47 s

volFieldValue Uavg_propeller write:
    volAverage(propeller) of U = (-0.0111041 0.0649858 -1.27445)

surfaceFieldValue phi_farField write:
    orientedSum(farField) of phi = -1.91608

surfaceFieldValue phi_top write:
    orientedSum(top) of phi = 1.47008

Time = 58s

--> FOAM Warning : 
    From function void Foam::Function1s::Table<Type>::checkX(Foam::scalar) const [with Type = Foam::Vector2D<double>; Foam::scalar = double]
    in file lnInclude/Table.C at line 107
    "value (0.0980343) underflow"

--> FOAM Warning : 
    From function void Foam::Function1s::Table<Type>::checkX(Foam::scalar) const [with Type = Foam::Vector2D<double>; Foam::scalar = double]
    in file lnInclude/Table.C at line 107
    "value (-0.233457) underflow"

smoothSolver:  Solving for Ux, Initial residual = 0.0381305, Final residual = 0.00223095, No Iterations 1
smoothSolver:  Solving for Uy, Initial residual = 0.0381844, Final residual = 0.00224919, No Iterations 1
smoothSolver:  Solving for Uz, Initial residual = 0.0604079, Final residual = 0.00360653, No Iterations 1
DICPCG:  Solving for p, Initial residual = 0.124774, Final residual = 0.00618412, No Iterations 25
time step continuity errors : sum local = 0.0242529, global = -0.002684, cumulative = -0.097181
smoothSolver:  Solving for omega, Initial residual = 0.0191606, Final residual = 0.000971214, No Iterations 1
smoothSolver:  Solving for k, Initial residual = 0.0353215, Final residual = 0.00170604, No Iterations 1
[...]

surfaceFieldValue phi_farField write:
    orientedSum(farField) of phi = -17.5995

surfaceFieldValue phi_top write:
    orientedSum(top) of phi = 17.6133

Time = 108s

--> FOAM Warning : 
    From function void Foam::Function1s::Table<Type>::checkX(Foam::scalar) const [with Type = Foam::Vector2D<double>; Foam::scalar = double]
    in file lnInclude/Table.C at line 107
    "value (0.060718) underflow"

--> FOAM Warning : 
    From function void Foam::Function1s::Table<Type>::checkX(Foam::scalar) const [with Type = Foam::Vector2D<double>; Foam::scalar = double]
    in file lnInclude/Table.C at line 107
    "value (-0.474501) underflow"

smoothSolver:  Solving for Ux, Initial residual = 0.015444, Final residual = 0.000632051, No Iterations 1
smoothSolver:  Solving for Uy, Initial residual = 0.0146954, Final residual = 0.000632908, No Iterations 1
smoothSolver:  Solving for Uz, Initial residual = 0.0130035, Final residual = 0.000529211, No Iterations 1
DICPCG:  Solving for p, Initial residual = 0.0650557, Final residual = 0.0031587, No Iterations 21
time step continuity errors : sum local = 0.0031775, global = 0.000289887, cumulative = -0.0904843
smoothSolver:  Solving for omega, Initial residual = 0.0220429, Final residual = 0.00102769, No Iterations 1
smoothSolver:  Solving for k, Initial residual = 0.0358044, Final residual = 0.0021356, No Iterations 1
ExecutionTime = 88.3501 s  ClockTime = 88 s

volFieldValue Uavg_propeller write:
    volAverage(propeller) of U = (-0.44978 -0.0873289 0.766508)

surfaceFieldValue phi_farField write:
    orientedSum(farField) of phi = -17.8756

surfaceFieldValue phi_top write:
    orientedSum(top) of phi = 17.8895

Time = 109s

--> FOAM Warning : 
    From function void Foam::Function1s::Table<Type>::checkX(Foam::scalar) const [with Type = Foam::Vector2D<double>; Foam::scalar = double]
    in file lnInclude/Table.C at line 107
    "value (0.0589622) underflow"

--> FOAM Warning : 
    From function void Foam::Function1s::Table<Type>::checkX(Foam::scalar) const [with Type = Foam::Vector2D<double>; Foam::scalar = double]
    in file lnInclude/Table.C at line 107
    "value (-0.492195) underflow"

smoothSolver:  Solving for Ux, Initial residual = 0.0155094, Final residual = 0.000634164, No Iterations 1
smoothSolver:  Solving for Uy, Initial residual = 0.0147295, Final residual = 0.000634501, No Iterations 1
smoothSolver:  Solving for Uz, Initial residual = 0.0128776, Final residual = 0.000521355, No Iterations 1
DICPCG:  Solving for p, Initial residual = 0.0654833, Final residual = 0.00319549, No Iterations 21
time step continuity errors : sum local = 0.00317935, global = 0.000297815, cumulative = -0.0901865
smoothSolver:  Solving for omega, Initial residual = 0.0212641, Final residual = 0.000991002, No Iterations 1
smoothSolver:  Solving for k, Initial residual = 0.0344901, Final residual = 0.00206405, No Iterations 1
ExecutionTime = 89.0796 s  ClockTime = 89 s

volFieldValue Uavg_propeller write:
    volAverage(propeller) of U = (-0.453793 -0.0976974 0.743586)

surfaceFieldValue phi_farField write:
    orientedSum(farField) of phi = -18.1434

surfaceFieldValue phi_top write:
    orientedSum(top) of phi = 18.1577

Time = 110s

--> FOAM Warning : 
    From function void Foam::Function1s::Table<Type>::checkX(Foam::scalar) const [with Type = Foam::Vector2D<double>; Foam::scalar = double]
    in file lnInclude/Table.C at line 107
    "value (0.0571989) underflow"

--> FOAM Warning : 
    From function void Foam::Function1s::Table<Type>::checkX(Foam::scalar) const [with Type = Foam::Vector2D<double>; Foam::scalar = double]
    in file lnInclude/Table.C at line 107
    "value (-0.510949) underflow"

smoothSolver:  Solving for Ux, Initial residual = 0.0155715, Final residual = 0.000636134, No Iterations 1
smoothSolver:  Solving for Uy, Initial residual = 0.0147642, Final residual = 0.000636306, No Iterations 1
smoothSolver:  Solving for Uz, Initial residual = 0.0127625, Final residual = 0.000514078, No Iterations 1
DICPCG:  Solving for p, Initial residual = 0.0656165, Final residual = 0.00327634, No Iterations 21
time step continuity errors : sum local = 0.0032596, global = 0.000333299, cumulative = -0.0898532
smoothSolver:  Solving for omega, Initial residual = 0.0205161, Final residual = 0.000956078, No Iterations 1
smoothSolver:  Solving for k, Initial residual = 0.033256, Final residual = 0.00199425, No Iterations 1
ExecutionTime = 89.7781 s  ClockTime = 90 s

volFieldValue Uavg_propeller write:
    volAverage(propeller) of U = (-0.457998 -0.109204 0.720292)

surfaceFieldValue phi_farField write:
    orientedSum(farField) of phi = -18.4

surfaceFieldValue phi_top write:
    orientedSum(top) of phi = 18.416

Time = 111s

--> FOAM Warning : 
    From function void Foam::Function1s::Table<Type>::checkX(Foam::scalar) const [with Type = Foam::Vector2D<double>; Foam::scalar = double]
    in file lnInclude/Table.C at line 107
    "value (0.0554071) underflow"

--> FOAM Warning : 
    From function void Foam::Function1s::Table<Type>::checkX(Foam::scalar) const [with Type = Foam::Vector2D<double>; Foam::scalar = double]
    in file lnInclude/Table.C at line 107
    "value (-0.531115) underflow"

smoothSolver:  Solving for Ux, Initial residual = 0.0156303, Final residual = 0.000638142, No Iterations 1
smoothSolver:  Solving for Uy, Initial residual = 0.0148004, Final residual = 0.00063837, No Iterations 1
smoothSolver:  Solving for Uz, Initial residual = 0.0126563, Final residual = 0.000507441, No Iterations 1
DICPCG:  Solving for p, Initial residual = 0.0654997, Final residual = 0.00317594, No Iterations 21
time step continuity errors : sum local = 0.00314131, global = 0.000346917, cumulative = -0.0895063
smoothSolver:  Solving for omega, Initial residual = 0.0198249, Final residual = 0.000924456, No Iterations 1
smoothSolver:  Solving for k, Initial residual = 0.0320625, Final residual = 0.00192934, No Iterations 1
ExecutionTime = 90.5236 s  ClockTime = 90 s

volFieldValue Uavg_propeller write:
    volAverage(propeller) of U = (-0.462409 -0.121362 0.696631)

surfaceFieldValue phi_farField write:
    orientedSum(farField) of phi = -18.6466

surfaceFieldValue phi_top write:
    orientedSum(top) of phi = 18.6632

Time = 112s

--> FOAM Warning : 
    From function void Foam::Function1s::Table<Type>::checkX(Foam::scalar) const [with Type = Foam::Vector2D<double>; Foam::scalar = double]
    in file lnInclude/Table.C at line 107
    "value (0.053587) underflow"

--> FOAM Warning : 
    From function void Foam::Function1s::Table<Type>::checkX(Foam::scalar) const [with Type = Foam::Vector2D<double>; Foam::scalar = double]
    in file lnInclude/Table.C at line 107
    "value (-0.552856) underflow"

smoothSolver:  Solving for Ux, Initial residual = 0.0156912, Final residual = 0.000640591, No Iterations 1
smoothSolver:  Solving for Uy, Initial residual = 0.0148382, Final residual = 0.000640633, No Iterations 1
smoothSolver:  Solving for Uz, Initial residual = 0.0125535, Final residual = 0.000501029, No Iterations 1
DICPCG:  Solving for p, Initial residual = 0.0652475, Final residual = 0.00318232, No Iterations 20
time step continuity errors : sum local = 0.0031479, global = 0.000423243, cumulative = -0.0890831
smoothSolver:  Solving for omega, Initial residual = 0.0191927, Final residual = 0.000896051, No Iterations 1
smoothSolver:  Solving for k, Initial residual = 0.0309289, Final residual = 0.00186507, No Iterations 1
ExecutionTime = 91.1614 s  ClockTime = 91 s

volFieldValue Uavg_propeller write:
    volAverage(propeller) of U = (-0.467257 -0.133679 0.673048)

surfaceFieldValue phi_farField write:
    orientedSum(farField) of phi = -18.8767

surfaceFieldValue phi_top write:
    orientedSum(top) of phi = 18.897

Time = 113s

--> FOAM Warning : 
    From function void Foam::Function1s::Table<Type>::checkX(Foam::scalar) const [with Type = Foam::Vector2D<double>; Foam::scalar = double]
    in file lnInclude/Table.C at line 107
    "value (0.0517729) underflow"

--> FOAM Warning : 
    From function void Foam::Function1s::Table<Type>::checkX(Foam::scalar) const [with Type = Foam::Vector2D<double>; Foam::scalar = double]
    in file lnInclude/Table.C at line 107
    "value (-0.575919) underflow"

smoothSolver:  Solving for Ux, Initial residual = 0.0157554, Final residual = 0.000643876, No Iterations 1
smoothSolver:  Solving for Uy, Initial residual = 0.014876, Final residual = 0.000643026, No Iterations 1
smoothSolver:  Solving for Uz, Initial residual = 0.0124514, Final residual = 0.000494616, No Iterations 1
DICPCG:  Solving for p, Initial residual = 0.0641412, Final residual = 0.00303192, No Iterations 20
time step continuity errors : sum local = 0.00305783, global = 0.000448211, cumulative = -0.0886349
smoothSolver:  Solving for omega, Initial residual = 0.0186579, Final residual = 0.000869587, No Iterations 1
smoothSolver:  Solving for k, Initial residual = 0.0298086, Final residual = 0.00180265, No Iterations 1
ExecutionTime = 91.8568 s  ClockTime = 92 s

volFieldValue Uavg_propeller write:
    volAverage(propeller) of U = (-0.472101 -0.145392 0.64975)

surfaceFieldValue phi_farField write:
    orientedSum(farField) of phi = -19.0952

surfaceFieldValue phi_top write:
    orientedSum(top) of phi = 19.1167

Time = 114s

--> FOAM Warning : 
    From function void Foam::Function1s::Table<Type>::checkX(Foam::scalar) const [with Type = Foam::Vector2D<double>; Foam::scalar = double]
    in file lnInclude/Table.C at line 107
    "value (0.0499808) underflow"

--> FOAM Warning : 
    From function void Foam::Function1s::Table<Type>::checkX(Foam::scalar) const [with Type = Foam::Vector2D<double>; Foam::scalar = double]
    in file lnInclude/Table.C at line 107
    "value (-0.600218) underflow"

smoothSolver:  Solving for Ux, Initial residual = 0.0158227, Final residual = 0.000647758, No Iterations 1
smoothSolver:  Solving for Uy, Initial residual = 0.0149085, Final residual = 0.000645041, No Iterations 1
smoothSolver:  Solving for Uz, Initial residual = 0.0123519, Final residual = 0.000488469, No Iterations 1
DICPCG:  Solving for p, Initial residual = 0.0642357, Final residual = 0.00309354, No Iterations 20
time step continuity errors : sum local = 0.00310957, global = 0.000467927, cumulative = -0.0881669
smoothSolver:  Solving for omega, Initial residual = 0.0181398, Final residual = 0.000843754, No Iterations 1
smoothSolver:  Solving for k, Initial residual = 0.0287233, Final residual = 0.0017428, No Iterations 1
ExecutionTime = 92.5559 s  ClockTime = 92 s

volFieldValue Uavg_propeller write:
    volAverage(propeller) of U = (-0.47668 -0.155904 0.626989)

surfaceFieldValue phi_farField write:
    orientedSum(farField) of phi = -19.2983

surfaceFieldValue phi_top write:
    orientedSum(top) of phi = 19.3207

Time = 115s

--> FOAM Warning : 
    From function void Foam::Function1s::Table<Type>::checkX(Foam::scalar) const [with Type = Foam::Vector2D<double>; Foam::scalar = double]
    in file lnInclude/Table.C at line 107
    "value (0.0482299) underflow"

--> FOAM Warning : 
    From function void Foam::Function1s::Table<Type>::checkX(Foam::scalar) const [with Type = Foam::Vector2D<double>; Foam::scalar = double]
    in file lnInclude/Table.C at line 107
    "value (-0.625573) underflow"

smoothSolver:  Solving for Ux, Initial residual = 0.0158867, Final residual = 0.000651501, No Iterations 1
smoothSolver:  Solving for Uy, Initial residual = 0.0149323, Final residual = 0.000646654, No Iterations 1
smoothSolver:  Solving for Uz, Initial residual = 0.0122598, Final residual = 0.000482908, No Iterations 1
DICPCG:  Solving for p, Initial residual = 0.0637693, Final residual = 0.00310591, No Iterations 20
time step continuity errors : sum local = 0.00315932, global = 0.000492298, cumulative = -0.0876746
smoothSolver:  Solving for omega, Initial residual = 0.0176315, Final residual = 0.000818546, No Iterations 1
smoothSolver:  Solving for k, Initial residual = 0.0276996, Final residual = 0.00168532, No Iterations 1
ExecutionTime = 93.2144 s  ClockTime = 93 s

volFieldValue Uavg_propeller write:
    volAverage(propeller) of U = (-0.480792 -0.164593 0.60472)

surfaceFieldValue phi_farField write:
    orientedSum(farField) of phi = -19.4843

surfaceFieldValue phi_top write:
    orientedSum(top) of phi = 19.508

Time = 116s

--> FOAM Warning : 
    From function void Foam::Function1s::Table<Type>::checkX(Foam::scalar) const [with Type = Foam::Vector2D<double>; Foam::scalar = double]
    in file lnInclude/Table.C at line 107
    "value (0.0465169) underflow"

--> FOAM Warning : 
    From function void Foam::Function1s::Table<Type>::checkX(Foam::scalar) const [with Type = Foam::Vector2D<double>; Foam::scalar = double]
    in file lnInclude/Table.C at line 107
    "value (-0.652099) underflow"

smoothSolver:  Solving for Ux, Initial residual = 0.0159415, Final residual = 0.000654705, No Iterations 1
smoothSolver:  Solving for Uy, Initial residual = 0.0149489, Final residual = 0.000648001, No Iterations 1
smoothSolver:  Solving for Uz, Initial residual = 0.0121764, Final residual = 0.000478183, No Iterations 1
DICPCG:  Solving for p, Initial residual = 0.0632959, Final residual = 0.00315486, No Iterations 20
time step continuity errors : sum local = 0.00325908, global = 0.000507049, cumulative = -0.0871676
smoothSolver:  Solving for omega, Initial residual = 0.0171701, Final residual = 0.000794451, No Iterations 1
smoothSolver:  Solving for k, Initial residual = 0.0267262, Final residual = 0.00163013, No Iterations 1
ExecutionTime = 93.9058 s  ClockTime = 94 s

volFieldValue Uavg_propeller write:
    volAverage(propeller) of U = (-0.484239 -0.170913 0.582803)

surfaceFieldValue phi_farField write:
    orientedSum(farField) of phi = -19.6535

surfaceFieldValue phi_top write:
    orientedSum(top) of phi = 19.6779

Time = 117s

--> FOAM Warning : 
    From function void Foam::Function1s::Table<Type>::checkX(Foam::scalar) const [with Type = Foam::Vector2D<double>; Foam::scalar = double]
    in file lnInclude/Table.C at line 107
    "value (0.044831) underflow"

--> FOAM Warning : 
    From function void Foam::Function1s::Table<Type>::checkX(Foam::scalar) const [with Type = Foam::Vector2D<double>; Foam::scalar = double]
    in file lnInclude/Table.C at line 107
    "value (-0.680057) underflow"

smoothSolver:  Solving for Ux, Initial residual = 0.0159868, Final residual = 0.000657358, No Iterations 1
smoothSolver:  Solving for Uy, Initial residual = 0.0149622, Final residual = 0.000649204, No Iterations 1
smoothSolver:  Solving for Uz, Initial residual = 0.0120996, Final residual = 0.000474201, No Iterations 1
DICPCG:  Solving for p, Initial residual = 0.0629897, Final residual = 0.00292586, No Iterations 21
time step continuity errors : sum local = 0.00305311, global = 0.000460906, cumulative = -0.0867067
smoothSolver:  Solving for omega, Initial residual = 0.0167756, Final residual = 0.000773044, No Iterations 1
smoothSolver:  Solving for k, Initial residual = 0.0258295, Final residual = 0.00157796, No Iterations 1
ExecutionTime = 94.6092 s  ClockTime = 95 s

volFieldValue Uavg_propeller write:
    volAverage(propeller) of U = (-0.486741 -0.174451 0.561108)

surfaceFieldValue phi_farField write:
    orientedSum(farField) of phi = -19.8081

surfaceFieldValue phi_top write:
    orientedSum(top) of phi = 19.8302

Time = 118s

--> FOAM Warning : 
    From function void Foam::Function1s::Table<Type>::checkX(Foam::scalar) const [with Type = Foam::Vector2D<double>; Foam::scalar = double]
    in file lnInclude/Table.C at line 107
    "value (0.0431621) underflow"

--> FOAM Warning : 
    From function void Foam::Function1s::Table<Type>::checkX(Foam::scalar) const [with Type = Foam::Vector2D<double>; Foam::scalar = double]
    in file lnInclude/Table.C at line 107
    "value (-0.709753) underflow"

smoothSolver:  Solving for Ux, Initial residual = 0.0160242, Final residual = 0.000659658, No Iterations 1
smoothSolver:  Solving for Uy, Initial residual = 0.0149703, Final residual = 0.000650176, No Iterations 1
smoothSolver:  Solving for Uz, Initial residual = 0.0120283, Final residual = 0.0004708, No Iterations 1
DICPCG:  Solving for p, Initial residual = 0.0630237, Final residual = 0.00314705, No Iterations 20
time step continuity errors : sum local = 0.00328416, global = 0.000547087, cumulative = -0.0861596
smoothSolver:  Solving for omega, Initial residual = 0.0163697, Final residual = 0.000752123, No Iterations 1
smoothSolver:  Solving for k, Initial residual = 0.024993, Final residual = 0.00152881, No Iterations 1
ExecutionTime = 95.3041 s  ClockTime = 95 s

volFieldValue Uavg_propeller write:
    volAverage(propeller) of U = (-0.488157 -0.175141 0.539698)

surfaceFieldValue phi_farField write:
    orientedSum(farField) of phi = -19.938

surfaceFieldValue phi_top write:
    orientedSum(top) of phi = 19.9643

Time = 119s

--> FOAM Warning : 
    From function void Foam::Function1s::Table<Type>::checkX(Foam::scalar) const [with Type = Foam::Vector2D<double>; Foam::scalar = double]
    in file lnInclude/Table.C at line 107
    "value (0.0415153) underflow"

--> FOAM Warning : 
    From function void Foam::Function1s::Table<Type>::checkX(Foam::scalar) const [with Type = Foam::Vector2D<double>; Foam::scalar = double]
    in file lnInclude/Table.C at line 107
    "value (-0.741268) underflow"

smoothSolver:  Solving for Ux, Initial residual = 0.0160631, Final residual = 0.000662212, No Iterations 1
smoothSolver:  Solving for Uy, Initial residual = 0.0149795, Final residual = 0.000651278, No Iterations 1
smoothSolver:  Solving for Uz, Initial residual = 0.0119597, Final residual = 0.0004678, No Iterations 1
DICPCG:  Solving for p, Initial residual = 0.0625351, Final residual = 0.00302538, No Iterations 20
time step continuity errors : sum local = 0.00319733, global = 0.000558551, cumulative = -0.085601
smoothSolver:  Solving for omega, Initial residual = 0.0159766, Final residual = 0.000733154, No Iterations 1
smoothSolver:  Solving for k, Initial residual = 0.0242302, Final residual = 0.00148258, No Iterations 1
ExecutionTime = 96.0388 s  ClockTime = 96 s

volFieldValue Uavg_propeller write:
    volAverage(propeller) of U = (-0.488272 -0.173011 0.518684)

surfaceFieldValue phi_farField write:
    orientedSum(farField) of phi = -20.0538

surfaceFieldValue phi_top write:
    orientedSum(top) of phi = 20.0806

Time = 120s

--> FOAM Warning : 
    From function void Foam::Function1s::Table<Type>::checkX(Foam::scalar) const [with Type = Foam::Vector2D<double>; Foam::scalar = double]
    in file lnInclude/Table.C at line 107
    "value (0.0398988) underflow"

--> FOAM Warning : 
    From function void Foam::Function1s::Table<Type>::checkX(Foam::scalar) const [with Type = Foam::Vector2D<double>; Foam::scalar = double]
    in file lnInclude/Table.C at line 107
    "value (-0.774599) underflow"

smoothSolver:  Solving for Ux, Initial residual = 0.0161005, Final residual = 0.000664843, No Iterations 1
smoothSolver:  Solving for Uy, Initial residual = 0.0149865, Final residual = 0.000652326, No Iterations 1
smoothSolver:  Solving for Uz, Initial residual = 0.0118948, Final residual = 0.000465192, No Iterations 1
DICPCG:  Solving for p, Initial residual = 0.0621269, Final residual = 0.00300707, No Iterations 19
time step continuity errors : sum local = 0.00321996, global = 0.000622712, cumulative = -0.0849783
smoothSolver:  Solving for omega, Initial residual = 0.0155901, Final residual = 0.000716458, No Iterations 1
smoothSolver:  Solving for k, Initial residual = 0.0235143, Final residual = 0.00144009, No Iterations 1
ExecutionTime = 97.7269 s  ClockTime = 98 s

volFieldValue Uavg_propeller write:
    volAverage(propeller) of U = (-0.486426 -0.168158 0.497997)

surfaceFieldValue phi_farField write:
    orientedSum(farField) of phi = -20.1492

surfaceFieldValue phi_top write:
    orientedSum(top) of phi = 20.1791

End

