/*---------------------------------------------------------------------------*\
  =========                 |
  \\      /  F ield         | OpenFOAM: The Open Source CFD Toolbox
   \\    /   O peration     | Website:  https://openfoam.org
    \\  /    A nd           | Version:  13
     \\/     M anipulation  |
\*---------------------------------------------------------------------------*/
Build  : 13-cde978a97c93
Exec   : foamRun
Date   : Feb 25 2026
Time   : 17:40:24
Host   : "JOO-DESKTOP"
PID    : 59190
I/O    : uncollated
Case   : /home/joo/OpenFOAM/joo-13/run/trackB_propellerIGE_v13/cases/baseCase
nProcs : 1
sigFpe : Enabling floating point exception trapping (FOAM_SIGFPE).
fileModificationChecking : Monitoring run-time modified files using timeStampMaster (fileModificationSkew 10)
allowSystemOperations : Allowing user-supplied system call operations

// * * * * * * * * * * * * * * * * * * * * * * * * * * * * * * * * * * * * * //
Create time

Create mesh for time = 0

Selecting solver incompressibleFluid
Selecting viscosity model constant
Selecting turbulence model type RAS
    Selecting RAS turbulence model kOmegaSST
No MRF models present

Selecting patchDistMethod meshWave
Creating fvModels from "constant/fvModels"

Selecting finite volume model type propellerDisk
    Name: diskSource

SIMPLE: Convergence criteria found
        p: tolerance 0.0001
        U: tolerance 1e-05
        k: tolerance 1e-05
        omega: tolerance 1e-05


SIMPLE: Operating solver in steady-state mode with 1 outer corrector
SIMPLE: Operating solver in SIMPLE mode



Starting time loop

Reading set description:
    line

Time = 1s

smoothSolver:  Solving for Ux, Initial residual = 1, Final residual = 0.00307308, No Iterations 1
smoothSolver:  Solving for Uy, Initial residual = 1, Final residual = 0.00307308, No Iterations 1
smoothSolver:  Solving for Uz, Initial residual = 1, Final residual = 0.00310761, No Iterations 1
DICPCG:  Solving for p, Initial residual = 1, Final residual = 0.0945167, No Iterations 14
time step continuity errors : sum local = 0.581989, global = -0.00743324, cumulative = -0.00743324
smoothSolver:  Solving for omega, Initial residual = 0.0577021, Final residual = 0.00147367, No Iterations 2
smoothSolver:  Solving for k, Initial residual = 1, Final residual = 0.0969703, No Iterations 1
ExecutionTime = 0.700834 s  ClockTime = 1 s

Time = 2s

smoothSolver:  Solving for Ux, Initial residual = 0.358931, Final residual = 0.0329461, No Iterations 1
smoothSolver:  Solving for Uy, Initial residual = 0.358884, Final residual = 0.0337507, No Iterations 1
smoothSolver:  Solving for Uz, Initial residual = 0.363261, Final residual = 0.0309627, No Iterations 1
DICPCG:  Solving for p, Initial residual = 0.964946, Final residual = 0.081964, No Iterations 12
time step continuity errors : sum local = 1.00932, global = 0.545942, cumulative = 0.538508
smoothSolver:  Solving for omega, Initial residual = 0.193651, Final residual = 0.00593314, No Iterations 2
smoothSolver:  Solving for k, Initial residual = 0.343357, Final residual = 0.00812608, No Iterations 2
ExecutionTime = 0.801527 s  ClockTime = 1 s

Time = 3s

smoothSolver:  Solving for Ux, Initial residual = 0.321426, Final residual = 0.00587733, No Iterations 2
smoothSolver:  Solving for Uy, Initial residual = 0.322997, Final residual = 0.00581965, No Iterations 2
smoothSolver:  Solving for Uz, Initial residual = 0.316651, Final residual = 0.0306476, No Iterations 1
DICPCG:  Solving for p, Initial residual = 0.495921, Final residual = 0.0406755, No Iterations 34
time step continuity errors : sum local = 0.593793, global = 0.0390664, cumulative = 0.577575
smoothSolver:  Solving for omega, Initial residual = 0.0677388, Final residual = 0.00641215, No Iterations 1
smoothSolver:  Solving for k, Initial residual = 0.138414, Final residual = 0.00319042, No Iterations 2
ExecutionTime = 0.914074 s  ClockTime = 1 s

Time = 4s

smoothSolver:  Solving for Ux, Initial residual = 0.226506, Final residual = 0.00507986, No Iterations 2
smoothSolver:  Solving for Uy, Initial residual = 0.226563, Final residual = 0.00510639, No Iterations 2
smoothSolver:  Solving for Uz, Initial residual = 0.231586, Final residual = 0.00410075, No Iterations 2
DICPCG:  Solving for p, Initial residual = 0.400171, Final residual = 0.0384463, No Iterations 12
time step continuity errors : sum local = 0.556086, global = 0.0253463, cumulative = 0.602921
smoothSolver:  Solving for omega, Initial residual = 0.0686221, Final residual = 0.00131518, No Iterations 2
smoothSolver:  Solving for k, Initial residual = 0.148589, Final residual = 0.00412579, No Iterations 2
ExecutionTime = 1.01717 s  ClockTime = 1 s

Time = 5s

smoothSolver:  Solving for Ux, Initial residual = 0.123538, Final residual = 0.00285272, No Iterations 2
smoothSolver:  Solving for Uy, Initial residual = 0.122332, Final residual = 0.00288588, No Iterations 2
smoothSolver:  Solving for Uz, Initial residual = 0.127329, Final residual = 0.00278488, No Iterations 2
DICPCG:  Solving for p, Initial residual = 0.511451, Final residual = 0.0463732, No Iterations 37
time step continuity errors : sum local = 0.635435, global = -0.0132975, cumulative = 0.589624
smoothSolver:  Solving for omega, Initial residual = 0.0648296, Final residual = 0.00140286, No Iterations 2
smoothSolver:  Solving for k, Initial residual = 0.164659, Final residual = 0.00377862, No Iterations 2
ExecutionTime = 1.1549 s  ClockTime = 1 s

Time = 6s

smoothSolver:  Solving for Ux, Initial residual = 0.17436, Final residual = 0.00389503, No Iterations 2
smoothSolver:  Solving for Uy, Initial residual = 0.170934, Final residual = 0.00380416, No Iterations 2
smoothSolver:  Solving for Uz, Initial residual = 0.13047, Final residual = 0.00207273, No Iterations 2
DICPCG:  Solving for p, Initial residual = 0.735309, Final residual = 0.0698622, No Iterations 10
time step continuity errors : sum local = 0.698156, global = -0.363314, cumulative = 0.22631
smoothSolver:  Solving for omega, Initial residual = 0.0939045, Final residual = 0.00733428, No Iterations 1
smoothSolver:  Solving for k, Initial residual = 0.157051, Final residual = 0.00193908, No Iterations 2
ExecutionTime = 1.26731 s  ClockTime = 1 s

Time = 7s

smoothSolver:  Solving for Ux, Initial residual = 0.235412, Final residual = 0.00559741, No Iterations 2
smoothSolver:  Solving for Uy, Initial residual = 0.231881, Final residual = 0.00597792, No Iterations 2
smoothSolver:  Solving for Uz, Initial residual = 0.148277, Final residual = 0.00245493, No Iterations 2
DICPCG:  Solving for p, Initial residual = 0.662553, Final residual = 0.0557739, No Iterations 34
time step continuity errors : sum local = 0.516554, global = -0.0108348, cumulative = 0.215475
smoothSolver:  Solving for omega, Initial residual = 0.114121, Final residual = 0.00714554, No Iterations 1
smoothSolver:  Solving for k, Initial residual = 0.176082, Final residual = 0.0137597, No Iterations 1
ExecutionTime = 1.40103 s  ClockTime = 2 s

Time = 8s

smoothSolver:  Solving for Ux, Initial residual = 0.260249, Final residual = 0.00571991, No Iterations 2
smoothSolver:  Solving for Uy, Initial residual = 0.266213, Final residual = 0.00574883, No Iterations 2
smoothSolver:  Solving for Uz, Initial residual = 0.159981, Final residual = 0.0031986, No Iterations 2
DICPCG:  Solving for p, Initial residual = 0.205465, Final residual = 0.0192065, No Iterations 28
time step continuity errors : sum local = 0.831514, global = 0.076449, cumulative = 0.291924
smoothSolver:  Solving for omega, Initial residual = 0.0928601, Final residual = 0.00717998, No Iterations 1
smoothSolver:  Solving for k, Initial residual = 0.154405, Final residual = 0.0135274, No Iterations 1
ExecutionTime = 1.52848 s  ClockTime = 2 s

Time = 9s

smoothSolver:  Solving for Ux, Initial residual = 0.232919, Final residual = 0.00363566, No Iterations 2
smoothSolver:  Solving for Uy, Initial residual = 0.236103, Final residual = 0.00353623, No Iterations 2
smoothSolver:  Solving for Uz, Initial residual = 0.162955, Final residual = 0.0151137, No Iterations 1
DICPCG:  Solving for p, Initial residual = 0.314535, Final residual = 0.0303398, No Iterations 27
time step continuity errors : sum local = 0.772941, global = 0.00200419, cumulative = 0.293928
smoothSolver:  Solving for omega, Initial residual = 0.0827475, Final residual = 0.00646888, No Iterations 1
smoothSolver:  Solving for k, Initial residual = 0.120959, Final residual = 0.00965976, No Iterations 1
ExecutionTime = 1.65423 s  ClockTime = 2 s

Time = 10s

smoothSolver:  Solving for Ux, Initial residual = 0.201389, Final residual = 0.00343242, No Iterations 2
smoothSolver:  Solving for Uy, Initial residual = 0.203979, Final residual = 0.00336125, No Iterations 2
smoothSolver:  Solving for Uz, Initial residual = 0.187337, Final residual = 0.0150794, No Iterations 1
DICPCG:  Solving for p, Initial residual = 0.610953, Final residual = 0.0580053, No Iterations 37
time step continuity errors : sum local = 0.634318, global = 0.0271892, cumulative = 0.321117
smoothSolver:  Solving for omega, Initial residual = 0.0779135, Final residual = 0.00687428, No Iterations 1
smoothSolver:  Solving for k, Initial residual = 0.116732, Final residual = 0.0111927, No Iterations 1
ExecutionTime = 1.79158 s  ClockTime = 2 s

Time = 11s

smoothSolver:  Solving for Ux, Initial residual = 0.169537, Final residual = 0.00302511, No Iterations 2
smoothSolver:  Solving for Uy, Initial residual = 0.171375, Final residual = 0.00317018, No Iterations 2
smoothSolver:  Solving for Uz, Initial residual = 0.207008, Final residual = 0.00331281, No Iterations 2
DICPCG:  Solving for p, Initial residual = 0.341293, Final residual = 0.0340101, No Iterations 31
time step continuity errors : sum local = 0.598756, global = -0.0605461, cumulative = 0.260571
smoothSolver:  Solving for omega, Initial residual = 0.0671202, Final residual = 0.00654755, No Iterations 1
smoothSolver:  Solving for k, Initial residual = 0.122096, Final residual = 0.0116529, No Iterations 1
ExecutionTime = 1.92101 s  ClockTime = 2 s

Time = 12s

smoothSolver:  Solving for Ux, Initial residual = 0.181657, Final residual = 0.00336838, No Iterations 2
smoothSolver:  Solving for Uy, Initial residual = 0.174044, Final residual = 0.00306708, No Iterations 2
smoothSolver:  Solving for Uz, Initial residual = 0.157104, Final residual = 0.00253808, No Iterations 2
DICPCG:  Solving for p, Initial residual = 0.535531, Final residual = 0.0531298, No Iterations 36
time step continuity errors : sum local = 0.596527, global = -0.0272569, cumulative = 0.233314
smoothSolver:  Solving for omega, Initial residual = 0.066778, Final residual = 0.00642901, No Iterations 1
smoothSolver:  Solving for k, Initial residual = 0.126473, Final residual = 0.0104161, No Iterations 1
ExecutionTime = 2.04478 s  ClockTime = 2 s

Time = 13s

smoothSolver:  Solving for Ux, Initial residual = 0.186325, Final residual = 0.00394209, No Iterations 2
smoothSolver:  Solving for Uy, Initial residual = 0.184998, Final residual = 0.00397278, No Iterations 2
smoothSolver:  Solving for Uz, Initial residual = 0.122318, Final residual = 0.00203188, No Iterations 2
DICPCG:  Solving for p, Initial residual = 0.354815, Final residual = 0.0340633, No Iterations 31
time step continuity errors : sum local = 0.522814, global = -0.0434664, cumulative = 0.189848
smoothSolver:  Solving for omega, Initial residual = 0.0672023, Final residual = 0.00133475, No Iterations 2
smoothSolver:  Solving for k, Initial residual = 0.11982, Final residual = 0.010492, No Iterations 1
ExecutionTime = 2.17823 s  ClockTime = 2 s

Time = 14s

smoothSolver:  Solving for Ux, Initial residual = 0.164463, Final residual = 0.00379314, No Iterations 2
smoothSolver:  Solving for Uy, Initial residual = 0.161691, Final residual = 0.00377422, No Iterations 2
smoothSolver:  Solving for Uz, Initial residual = 0.151407, Final residual = 0.00288085, No Iterations 2
DICPCG:  Solving for p, Initial residual = 0.185978, Final residual = 0.01816, No Iterations 11
time step continuity errors : sum local = 0.479484, global = 0.197197, cumulative = 0.387045
smoothSolver:  Solving for omega, Initial residual = 0.0629692, Final residual = 0.00153696, No Iterations 2
smoothSolver:  Solving for k, Initial residual = 0.108164, Final residual = 0.00182573, No Iterations 2
ExecutionTime = 2.28962 s  ClockTime = 3 s

Time = 15s

smoothSolver:  Solving for Ux, Initial residual = 0.12831, Final residual = 0.00298967, No Iterations 2
smoothSolver:  Solving for Uy, Initial residual = 0.127746, Final residual = 0.00298244, No Iterations 2
smoothSolver:  Solving for Uz, Initial residual = 0.136505, Final residual = 0.00298202, No Iterations 2
DICPCG:  Solving for p, Initial residual = 0.198719, Final residual = 0.0187535, No Iterations 36
time step continuity errors : sum local = 0.406502, global = 0.00730118, cumulative = 0.394346
smoothSolver:  Solving for omega, Initial residual = 0.0572977, Final residual = 0.00156922, No Iterations 2
smoothSolver:  Solving for k, Initial residual = 0.106974, Final residual = 0.00185664, No Iterations 2
ExecutionTime = 2.43891 s  ClockTime = 3 s

Time = 16s

smoothSolver:  Solving for Ux, Initial residual = 0.122727, Final residual = 0.00300535, No Iterations 2
smoothSolver:  Solving for Uy, Initial residual = 0.121755, Final residual = 0.0028048, No Iterations 2
smoothSolver:  Solving for Uz, Initial residual = 0.105324, Final residual = 0.00243426, No Iterations 2
DICPCG:  Solving for p, Initial residual = 0.581574, Final residual = 0.0533908, No Iterations 30
time step continuity errors : sum local = 0.301456, global = 0.0182527, cumulative = 0.412599
smoothSolver:  Solving for omega, Initial residual = 0.059572, Final residual = 0.00173763, No Iterations 2
smoothSolver:  Solving for k, Initial residual = 0.112485, Final residual = 0.00215195, No Iterations 2
ExecutionTime = 2.5606 s  ClockTime = 3 s

Time = 17s

smoothSolver:  Solving for Ux, Initial residual = 0.106735, Final residual = 0.00289075, No Iterations 2
smoothSolver:  Solving for Uy, Initial residual = 0.10964, Final residual = 0.00309024, No Iterations 2
smoothSolver:  Solving for Uz, Initial residual = 0.109278, Final residual = 0.00282843, No Iterations 2
DICPCG:  Solving for p, Initial residual = 0.352687, Final residual = 0.0340051, No Iterations 13
time step continuity errors : sum local = 0.31144, global = -0.132894, cumulative = 0.279705
smoothSolver:  Solving for omega, Initial residual = 0.059772, Final residual = 0.00170085, No Iterations 2
smoothSolver:  Solving for k, Initial residual = 0.113712, Final residual = 0.00225955, No Iterations 2
ExecutionTime = 2.67143 s  ClockTime = 3 s

Time = 18s

smoothSolver:  Solving for Ux, Initial residual = 0.0789928, Final residual = 0.00202761, No Iterations 2
smoothSolver:  Solving for Uy, Initial residual = 0.0812781, Final residual = 0.00221587, No Iterations 2
smoothSolver:  Solving for Uz, Initial residual = 0.0856161, Final residual = 0.0020591, No Iterations 2
DICPCG:  Solving for p, Initial residual = 0.320437, Final residual = 0.0312021, No Iterations 31
time step continuity errors : sum local = 0.300203, global = -0.0155161, cumulative = 0.264189
smoothSolver:  Solving for omega, Initial residual = 0.0571184, Final residual = 0.00162986, No Iterations 2
smoothSolver:  Solving for k, Initial residual = 0.109134, Final residual = 0.00238616, No Iterations 2
ExecutionTime = 2.7984 s  ClockTime = 3 s

Time = 19s

smoothSolver:  Solving for Ux, Initial residual = 0.0742446, Final residual = 0.00206435, No Iterations 2
smoothSolver:  Solving for Uy, Initial residual = 0.076787, Final residual = 0.00225278, No Iterations 2
smoothSolver:  Solving for Uz, Initial residual = 0.0550694, Final residual = 0.00154238, No Iterations 2
DICPCG:  Solving for p, Initial residual = 0.30093, Final residual = 0.0283149, No Iterations 26
time step continuity errors : sum local = 0.233783, global = -0.0303548, cumulative = 0.233834
smoothSolver:  Solving for omega, Initial residual = 0.0524257, Final residual = 0.00144091, No Iterations 2
smoothSolver:  Solving for k, Initial residual = 0.102175, Final residual = 0.00243084, No Iterations 2
ExecutionTime = 2.90785 s  ClockTime = 3 s

Time = 20s

smoothSolver:  Solving for Ux, Initial residual = 0.0722377, Final residual = 0.00220054, No Iterations 2
smoothSolver:  Solving for Uy, Initial residual = 0.077589, Final residual = 0.00243868, No Iterations 2
smoothSolver:  Solving for Uz, Initial residual = 0.0579567, Final residual = 0.0017179, No Iterations 2
DICPCG:  Solving for p, Initial residual = 0.220454, Final residual = 0.0203481, No Iterations 26
time step continuity errors : sum local = 0.235555, global = 0.0232901, cumulative = 0.257124
smoothSolver:  Solving for omega, Initial residual = 0.0494311, Final residual = 0.00135092, No Iterations 2
smoothSolver:  Solving for k, Initial residual = 0.0981582, Final residual = 0.00258055, No Iterations 2
ExecutionTime = 3.021 s  ClockTime = 3 s

Time = 21s

smoothSolver:  Solving for Ux, Initial residual = 0.058122, Final residual = 0.00172547, No Iterations 2
smoothSolver:  Solving for Uy, Initial residual = 0.0649774, Final residual = 0.001985, No Iterations 2
smoothSolver:  Solving for Uz, Initial residual = 0.0396383, Final residual = 0.0010225, No Iterations 2
DICPCG:  Solving for p, Initial residual = 0.302379, Final residual = 0.0302299, No Iterations 27
time step continuity errors : sum local = 0.233748, global = 0.0243681, cumulative = 0.281492
smoothSolver:  Solving for omega, Initial residual = 0.0497843, Final residual = 0.00138678, No Iterations 2
smoothSolver:  Solving for k, Initial residual = 0.0996577, Final residual = 0.0027567, No Iterations 2
ExecutionTime = 3.13795 s  ClockTime = 3 s

Time = 22s

smoothSolver:  Solving for Ux, Initial residual = 0.0549885, Final residual = 0.00171067, No Iterations 2
smoothSolver:  Solving for Uy, Initial residual = 0.0577722, Final residual = 0.00177723, No Iterations 2
smoothSolver:  Solving for Uz, Initial residual = 0.0510445, Final residual = 0.00169255, No Iterations 2
DICPCG:  Solving for p, Initial residual = 0.343935, Final residual = 0.0335212, No Iterations 24
time step continuity errors : sum local = 0.188884, global = 0.00241085, cumulative = 0.283903
smoothSolver:  Solving for omega, Initial residual = 0.0520108, Final residual = 0.00146474, No Iterations 2
smoothSolver:  Solving for k, Initial residual = 0.101569, Final residual = 0.0028565, No Iterations 2
ExecutionTime = 3.25461 s  ClockTime = 3 s

Time = 23s

smoothSolver:  Solving for Ux, Initial residual = 0.0553433, Final residual = 0.00186966, No Iterations 2
smoothSolver:  Solving for Uy, Initial residual = 0.0557117, Final residual = 0.00179139, No Iterations 2
smoothSolver:  Solving for Uz, Initial residual = 0.0608051, Final residual = 0.00200335, No Iterations 2
DICPCG:  Solving for p, Initial residual = 0.2562, Final residual = 0.0247743, No Iterations 11
time step continuity errors : sum local = 0.191743, global = -0.0644468, cumulative = 0.219456
smoothSolver:  Solving for omega, Initial residual = 0.0519783, Final residual = 0.0014636, No Iterations 2
smoothSolver:  Solving for k, Initial residual = 0.100735, Final residual = 0.00285838, No Iterations 2
ExecutionTime = 3.35796 s  ClockTime = 4 s

Time = 24s

smoothSolver:  Solving for Ux, Initial residual = 0.0526264, Final residual = 0.00180475, No Iterations 2
smoothSolver:  Solving for Uy, Initial residual = 0.0522788, Final residual = 0.00168575, No Iterations 2
smoothSolver:  Solving for Uz, Initial residual = 0.0555507, Final residual = 0.00174609, No Iterations 2
DICPCG:  Solving for p, Initial residual = 0.266533, Final residual = 0.0250961, No Iterations 25
time step continuity errors : sum local = 0.176229, global = -0.0161184, cumulative = 0.203338
smoothSolver:  Solving for omega, Initial residual = 0.0506221, Final residual = 0.001428, No Iterations 2
smoothSolver:  Solving for k, Initial residual = 0.0986507, Final residual = 0.00289599, No Iterations 2
ExecutionTime = 3.47489 s  ClockTime = 4 s

Time = 25s

smoothSolver:  Solving for Ux, Initial residual = 0.0461448, Final residual = 0.00158239, No Iterations 2
smoothSolver:  Solving for Uy, Initial residual = 0.0454273, Final residual = 0.00146185, No Iterations 2
smoothSolver:  Solving for Uz, Initial residual = 0.0338799, Final residual = 0.000995699, No Iterations 2
DICPCG:  Solving for p, Initial residual = 0.419207, Final residual = 0.0399164, No Iterations 22
time step continuity errors : sum local = 0.150173, global = -0.0079883, cumulative = 0.195349
smoothSolver:  Solving for omega, Initial residual = 0.049314, Final residual = 0.00140154, No Iterations 2
smoothSolver:  Solving for k, Initial residual = 0.0996296, Final residual = 0.00291674, No Iterations 2
ExecutionTime = 3.59315 s  ClockTime = 4 s

Time = 26s

smoothSolver:  Solving for Ux, Initial residual = 0.0409603, Final residual = 0.00137848, No Iterations 2
smoothSolver:  Solving for Uy, Initial residual = 0.0411978, Final residual = 0.00132716, No Iterations 2
smoothSolver:  Solving for Uz, Initial residual = 0.0311225, Final residual = 0.000898839, No Iterations 2
DICPCG:  Solving for p, Initial residual = 0.340998, Final residual = 0.0334075, No Iterations 10
time step continuity errors : sum local = 0.142025, global = 0.0283624, cumulative = 0.223712
smoothSolver:  Solving for omega, Initial residual = 0.0455392, Final residual = 0.00130223, No Iterations 2
smoothSolver:  Solving for k, Initial residual = 0.0977575, Final residual = 0.00280333, No Iterations 2
ExecutionTime = 3.69416 s  ClockTime = 4 s

Time = 27s

smoothSolver:  Solving for Ux, Initial residual = 0.0358913, Final residual = 0.00115321, No Iterations 2
smoothSolver:  Solving for Uy, Initial residual = 0.0367418, Final residual = 0.00117214, No Iterations 2
smoothSolver:  Solving for Uz, Initial residual = 0.0300811, Final residual = 0.000894483, No Iterations 2
DICPCG:  Solving for p, Initial residual = 0.319221, Final residual = 0.028117, No Iterations 26
time step continuity errors : sum local = 0.116699, global = 0.0174966, cumulative = 0.241208
smoothSolver:  Solving for omega, Initial residual = 0.0440409, Final residual = 0.00125228, No Iterations 2
smoothSolver:  Solving for k, Initial residual = 0.097505, Final residual = 0.0027939, No Iterations 2
ExecutionTime = 3.81569 s  ClockTime = 4 s

Time = 28s

smoothSolver:  Solving for Ux, Initial residual = 0.0339388, Final residual = 0.00104759, No Iterations 2
smoothSolver:  Solving for Uy, Initial residual = 0.037358, Final residual = 0.00120524, No Iterations 2
smoothSolver:  Solving for Uz, Initial residual = 0.0322306, Final residual = 0.000986755, No Iterations 2
DICPCG:  Solving for p, Initial residual = 0.40137, Final residual = 0.0382336, No Iterations 10
time step continuity errors : sum local = 0.117228, global = 0.0224981, cumulative = 0.263706
smoothSolver:  Solving for omega, Initial residual = 0.0436432, Final residual = 0.00119802, No Iterations 2
smoothSolver:  Solving for k, Initial residual = 0.100491, Final residual = 0.00281633, No Iterations 2
ExecutionTime = 3.92044 s  ClockTime = 4 s

Time = 29s

smoothSolver:  Solving for Ux, Initial residual = 0.032897, Final residual = 0.00102267, No Iterations 2
smoothSolver:  Solving for Uy, Initial residual = 0.0357358, Final residual = 0.00115408, No Iterations 2
smoothSolver:  Solving for Uz, Initial residual = 0.0296765, Final residual = 0.000872426, No Iterations 2
DICPCG:  Solving for p, Initial residual = 0.395423, Final residual = 0.0364298, No Iterations 20
time step continuity errors : sum local = 0.110639, global = -0.015905, cumulative = 0.247801
smoothSolver:  Solving for omega, Initial residual = 0.044039, Final residual = 0.00117064, No Iterations 2
smoothSolver:  Solving for k, Initial residual = 0.104892, Final residual = 0.00288326, No Iterations 2
ExecutionTime = 4.03845 s  ClockTime = 4 s

Time = 30s

smoothSolver:  Solving for Ux, Initial residual = 0.0315296, Final residual = 0.000965654, No Iterations 2
smoothSolver:  Solving for Uy, Initial residual = 0.033277, Final residual = 0.00105611, No Iterations 2
smoothSolver:  Solving for Uz, Initial residual = 0.0259086, Final residual = 0.000731913, No Iterations 2
DICPCG:  Solving for p, Initial residual = 0.354548, Final residual = 0.0325948, No Iterations 22
time step continuity errors : sum local = 0.104394, global = -0.00410344, cumulative = 0.243698
smoothSolver:  Solving for omega, Initial residual = 0.0445249, Final residual = 0.00115279, No Iterations 2
smoothSolver:  Solving for k, Initial residual = 0.110109, Final residual = 0.00294681, No Iterations 2
ExecutionTime = 4.15718 s  ClockTime = 4 s

Time = 31s

smoothSolver:  Solving for Ux, Initial residual = 0.0294106, Final residual = 0.000916279, No Iterations 2
smoothSolver:  Solving for Uy, Initial residual = 0.0296394, Final residual = 0.000962027, No Iterations 2
smoothSolver:  Solving for Uz, Initial residual = 0.0250024, Final residual = 0.000666678, No Iterations 2
DICPCG:  Solving for p, Initial residual = 0.242125, Final residual = 0.0236702, No Iterations 17
time step continuity errors : sum local = 0.109346, global = -0.0191956, cumulative = 0.224502
smoothSolver:  Solving for omega, Initial residual = 0.0452077, Final residual = 0.0011227, No Iterations 2
smoothSolver:  Solving for k, Initial residual = 0.11423, Final residual = 0.00297645, No Iterations 2
ExecutionTime = 4.26788 s  ClockTime = 4 s

Time = 32s

smoothSolver:  Solving for Ux, Initial residual = 0.0286734, Final residual = 0.000899135, No Iterations 2
smoothSolver:  Solving for Uy, Initial residual = 0.0285112, Final residual = 0.000937299, No Iterations 2
smoothSolver:  Solving for Uz, Initial residual = 0.0248494, Final residual = 0.000623212, No Iterations 2
DICPCG:  Solving for p, Initial residual = 0.211212, Final residual = 0.0188131, No Iterations 8
time step continuity errors : sum local = 0.1011, global = 0.0285004, cumulative = 0.253003
smoothSolver:  Solving for omega, Initial residual = 0.0454703, Final residual = 0.00108098, No Iterations 2
smoothSolver:  Solving for k, Initial residual = 0.118073, Final residual = 0.00298286, No Iterations 2
ExecutionTime = 4.36972 s  ClockTime = 5 s

Time = 33s

smoothSolver:  Solving for Ux, Initial residual = 0.0289665, Final residual = 0.000910929, No Iterations 2
smoothSolver:  Solving for Uy, Initial residual = 0.0282686, Final residual = 0.00093805, No Iterations 2
smoothSolver:  Solving for Uz, Initial residual = 0.023592, Final residual = 0.000592144, No Iterations 2
DICPCG:  Solving for p, Initial residual = 0.185098, Final residual = 0.0183634, No Iterations 21
time step continuity errors : sum local = 0.11415, global = 0.0036605, cumulative = 0.256663
smoothSolver:  Solving for omega, Initial residual = 0.0441017, Final residual = 0.00102418, No Iterations 2
smoothSolver:  Solving for k, Initial residual = 0.118249, Final residual = 0.00293513, No Iterations 2
ExecutionTime = 4.48148 s  ClockTime = 5 s

Time = 34s

smoothSolver:  Solving for Ux, Initial residual = 0.0292974, Final residual = 0.000921789, No Iterations 2
smoothSolver:  Solving for Uy, Initial residual = 0.0282152, Final residual = 0.000928731, No Iterations 2
smoothSolver:  Solving for Uz, Initial residual = 0.0201874, Final residual = 0.000526321, No Iterations 2
DICPCG:  Solving for p, Initial residual = 0.226765, Final residual = 0.0186747, No Iterations 21
time step continuity errors : sum local = 0.0905437, global = -0.000922298, cumulative = 0.255741
smoothSolver:  Solving for omega, Initial residual = 0.042196, Final residual = 0.000950948, No Iterations 2
smoothSolver:  Solving for k, Initial residual = 0.115567, Final residual = 0.00282547, No Iterations 2
ExecutionTime = 4.59927 s  ClockTime = 5 s

Time = 35s

smoothSolver:  Solving for Ux, Initial residual = 0.0285358, Final residual = 0.000895815, No Iterations 2
smoothSolver:  Solving for Uy, Initial residual = 0.0272644, Final residual = 0.000890807, No Iterations 2
smoothSolver:  Solving for Uz, Initial residual = 0.0201589, Final residual = 0.000514365, No Iterations 2
DICPCG:  Solving for p, Initial residual = 0.298382, Final residual = 0.0277933, No Iterations 8
time step continuity errors : sum local = 0.100214, global = -0.00581644, cumulative = 0.249924
smoothSolver:  Solving for omega, Initial residual = 0.0393031, Final residual = 0.000893126, No Iterations 2
smoothSolver:  Solving for k, Initial residual = 0.108898, Final residual = 0.00260811, No Iterations 2
ExecutionTime = 4.69865 s  ClockTime = 5 s

Time = 36s

smoothSolver:  Solving for Ux, Initial residual = 0.0277464, Final residual = 0.00086634, No Iterations 2
smoothSolver:  Solving for Uy, Initial residual = 0.0265308, Final residual = 0.000850912, No Iterations 2
smoothSolver:  Solving for Uz, Initial residual = 0.0188312, Final residual = 0.000486263, No Iterations 2
DICPCG:  Solving for p, Initial residual = 0.28746, Final residual = 0.0272028, No Iterations 20
time step continuity errors : sum local = 0.0966714, global = -0.00956573, cumulative = 0.240359
smoothSolver:  Solving for omega, Initial residual = 0.0366624, Final residual = 0.000839371, No Iterations 2
smoothSolver:  Solving for k, Initial residual = 0.0989202, Final residual = 0.00225871, No Iterations 2
ExecutionTime = 4.81093 s  ClockTime = 5 s

Time = 37s

smoothSolver:  Solving for Ux, Initial residual = 0.0267914, Final residual = 0.000820987, No Iterations 2
smoothSolver:  Solving for Uy, Initial residual = 0.0255727, Final residual = 0.00079701, No Iterations 2
smoothSolver:  Solving for Uz, Initial residual = 0.0173723, Final residual = 0.000444307, No Iterations 2
DICPCG:  Solving for p, Initial residual = 0.206669, Final residual = 0.019242, No Iterations 16
time step continuity errors : sum local = 0.0906656, global = -0.00865605, cumulative = 0.231703
smoothSolver:  Solving for omega, Initial residual = 0.0344343, Final residual = 0.000789498, No Iterations 2
smoothSolver:  Solving for k, Initial residual = 0.090648, Final residual = 0.00195776, No Iterations 2
ExecutionTime = 4.91919 s  ClockTime = 5 s

Time = 38s

smoothSolver:  Solving for Ux, Initial residual = 0.0259191, Final residual = 0.000793079, No Iterations 2
smoothSolver:  Solving for Uy, Initial residual = 0.0249652, Final residual = 0.000770828, No Iterations 2
smoothSolver:  Solving for Uz, Initial residual = 0.0164347, Final residual = 0.000422858, No Iterations 2
DICPCG:  Solving for p, Initial residual = 0.153288, Final residual = 0.0140619, No Iterations 8
time step continuity errors : sum local = 0.0853254, global = -6.78318e-05, cumulative = 0.231635
smoothSolver:  Solving for omega, Initial residual = 0.0326596, Final residual = 0.000745154, No Iterations 2
smoothSolver:  Solving for k, Initial residual = 0.0834845, Final residual = 0.00174258, No Iterations 2
ExecutionTime = 5.01699 s  ClockTime = 5 s

Time = 39s

smoothSolver:  Solving for Ux, Initial residual = 0.025268, Final residual = 0.000768431, No Iterations 2
smoothSolver:  Solving for Uy, Initial residual = 0.0245221, Final residual = 0.00074707, No Iterations 2
smoothSolver:  Solving for Uz, Initial residual = 0.0153095, Final residual = 0.000393079, No Iterations 2
DICPCG:  Solving for p, Initial residual = 0.146857, Final residual = 0.0146171, No Iterations 15
time step continuity errors : sum local = 0.0839978, global = 0.0208406, cumulative = 0.252475
smoothSolver:  Solving for omega, Initial residual = 0.0312212, Final residual = 0.000706702, No Iterations 2
smoothSolver:  Solving for k, Initial residual = 0.0769322, Final residual = 0.00160485, No Iterations 2
ExecutionTime = 5.12128 s  ClockTime = 5 s

Time = 40s

smoothSolver:  Solving for Ux, Initial residual = 0.024413, Final residual = 0.000738686, No Iterations 2
smoothSolver:  Solving for Uy, Initial residual = 0.0239369, Final residual = 0.000719576, No Iterations 2
smoothSolver:  Solving for Uz, Initial residual = 0.0141442, Final residual = 0.000343671, No Iterations 2
DICPCG:  Solving for p, Initial residual = 0.145801, Final residual = 0.0137986, No Iterations 18
time step continuity errors : sum local = 0.0723012, global = 0.00397285, cumulative = 0.256448
smoothSolver:  Solving for omega, Initial residual = 0.0301339, Final residual = 0.000668567, No Iterations 2
smoothSolver:  Solving for k, Initial residual = 0.0715612, Final residual = 0.00152597, No Iterations 2
ExecutionTime = 5.23495 s  ClockTime = 5 s

Time = 41s

smoothSolver:  Solving for Ux, Initial residual = 0.0230367, Final residual = 0.000688168, No Iterations 2
smoothSolver:  Solving for Uy, Initial residual = 0.0225385, Final residual = 0.000669111, No Iterations 2
smoothSolver:  Solving for Uz, Initial residual = 0.0134655, Final residual = 0.000322494, No Iterations 2
DICPCG:  Solving for p, Initial residual = 0.173041, Final residual = 0.0171791, No Iterations 8
time step continuity errors : sum local = 0.0687695, global = 0.0147311, cumulative = 0.271179
smoothSolver:  Solving for omega, Initial residual = 0.0290625, Final residual = 0.000635624, No Iterations 2
smoothSolver:  Solving for k, Initial residual = 0.0680795, Final residual = 0.00148333, No Iterations 2
ExecutionTime = 5.33332 s  ClockTime = 6 s

Time = 42s

smoothSolver:  Solving for Ux, Initial residual = 0.0215042, Final residual = 0.000636806, No Iterations 2
smoothSolver:  Solving for Uy, Initial residual = 0.0211443, Final residual = 0.00062707, No Iterations 2
smoothSolver:  Solving for Uz, Initial residual = 0.0129092, Final residual = 0.000320708, No Iterations 2
DICPCG:  Solving for p, Initial residual = 0.161265, Final residual = 0.01584, No Iterations 11
time step continuity errors : sum local = 0.0638446, global = -0.00435119, cumulative = 0.266828
smoothSolver:  Solving for omega, Initial residual = 0.0278362, Final residual = 0.000604377, No Iterations 2
smoothSolver:  Solving for k, Initial residual = 0.0649162, Final residual = 0.00145364, No Iterations 2
ExecutionTime = 5.44269 s  ClockTime = 6 s

Time = 43s

smoothSolver:  Solving for Ux, Initial residual = 0.0195693, Final residual = 0.000571313, No Iterations 2
smoothSolver:  Solving for Uy, Initial residual = 0.0193538, Final residual = 0.000578098, No Iterations 2
smoothSolver:  Solving for Uz, Initial residual = 0.0120515, Final residual = 0.000313715, No Iterations 2
DICPCG:  Solving for p, Initial residual = 0.157034, Final residual = 0.0147028, No Iterations 9
time step continuity errors : sum local = 0.0565096, global = -0.0132979, cumulative = 0.25353
smoothSolver:  Solving for omega, Initial residual = 0.0266137, Final residual = 0.000579221, No Iterations 2
smoothSolver:  Solving for k, Initial residual = 0.0621737, Final residual = 0.0014384, No Iterations 2
ExecutionTime = 5.54846 s  ClockTime = 6 s

Time = 44s

smoothSolver:  Solving for Ux, Initial residual = 0.0180715, Final residual = 0.000517082, No Iterations 2
smoothSolver:  Solving for Uy, Initial residual = 0.0180196, Final residual = 0.000542241, No Iterations 2
smoothSolver:  Solving for Uz, Initial residual = 0.0113379, Final residual = 0.000299088, No Iterations 2
DICPCG:  Solving for p, Initial residual = 0.141774, Final residual = 0.0130745, No Iterations 14
time step continuity errors : sum local = 0.0511863, global = -0.00730855, cumulative = 0.246222
smoothSolver:  Solving for omega, Initial residual = 0.0252249, Final residual = 0.000559636, No Iterations 2
smoothSolver:  Solving for k, Initial residual = 0.0596012, Final residual = 0.00144436, No Iterations 2
ExecutionTime = 5.65875 s  ClockTime = 6 s

Time = 45s

smoothSolver:  Solving for Ux, Initial residual = 0.0169835, Final residual = 0.00048719, No Iterations 2
smoothSolver:  Solving for Uy, Initial residual = 0.0170066, Final residual = 0.000513672, No Iterations 2
smoothSolver:  Solving for Uz, Initial residual = 0.0106686, Final residual = 0.000283342, No Iterations 2
DICPCG:  Solving for p, Initial residual = 0.117365, Final residual = 0.0100149, No Iterations 14
time step continuity errors : sum local = 0.0439001, global = -0.00620541, cumulative = 0.240016
smoothSolver:  Solving for omega, Initial residual = 0.0238621, Final residual = 0.000548544, No Iterations 2
smoothSolver:  Solving for k, Initial residual = 0.056898, Final residual = 0.00145368, No Iterations 2
ExecutionTime = 5.77104 s  ClockTime = 6 s

Time = 46s

smoothSolver:  Solving for Ux, Initial residual = 0.0163786, Final residual = 0.000473361, No Iterations 2
smoothSolver:  Solving for Uy, Initial residual = 0.0162281, Final residual = 0.000492774, No Iterations 2
smoothSolver:  Solving for Uz, Initial residual = 0.0100709, Final residual = 0.000265952, No Iterations 2
DICPCG:  Solving for p, Initial residual = 0.104337, Final residual = 0.00944049, No Iterations 7
time step continuity errors : sum local = 0.0436652, global = -0.00134227, cumulative = 0.238674
smoothSolver:  Solving for omega, Initial residual = 0.0225159, Final residual = 0.000540588, No Iterations 2
smoothSolver:  Solving for k, Initial residual = 0.0543242, Final residual = 0.0014687, No Iterations 2
ExecutionTime = 5.87748 s  ClockTime = 6 s

Time = 47s

smoothSolver:  Solving for Ux, Initial residual = 0.0155714, Final residual = 0.000454966, No Iterations 2
smoothSolver:  Solving for Uy, Initial residual = 0.0154554, Final residual = 0.000475303, No Iterations 2
smoothSolver:  Solving for Uz, Initial residual = 0.00962165, Final residual = 0.00025397, No Iterations 2
DICPCG:  Solving for p, Initial residual = 0.10078, Final residual = 0.00943948, No Iterations 8
time step continuity errors : sum local = 0.0419412, global = 0.0050349, cumulative = 0.243709
smoothSolver:  Solving for omega, Initial residual = 0.0212192, Final residual = 0.000537222, No Iterations 2
smoothSolver:  Solving for k, Initial residual = 0.0517142, Final residual = 0.00148104, No Iterations 2
ExecutionTime = 5.973 s  ClockTime = 6 s

Time = 48s

smoothSolver:  Solving for Ux, Initial residual = 0.0147466, Final residual = 0.000434611, No Iterations 2
smoothSolver:  Solving for Uy, Initial residual = 0.0147796, Final residual = 0.000459387, No Iterations 2
smoothSolver:  Solving for Uz, Initial residual = 0.00915216, Final residual = 0.000244324, No Iterations 2
DICPCG:  Solving for p, Initial residual = 0.0954811, Final residual = 0.00836834, No Iterations 9
time step continuity errors : sum local = 0.0374866, global = 0.00604876, cumulative = 0.249758
smoothSolver:  Solving for omega, Initial residual = 0.0200417, Final residual = 0.000535738, No Iterations 2
smoothSolver:  Solving for k, Initial residual = 0.04913, Final residual = 0.00149105, No Iterations 2
ExecutionTime = 6.07566 s  ClockTime = 6 s

Time = 49s

smoothSolver:  Solving for Ux, Initial residual = 0.0140151, Final residual = 0.000419244, No Iterations 2
smoothSolver:  Solving for Uy, Initial residual = 0.0140867, Final residual = 0.000438632, No Iterations 2
smoothSolver:  Solving for Uz, Initial residual = 0.00866365, Final residual = 0.0002335, No Iterations 2
DICPCG:  Solving for p, Initial residual = 0.0938333, Final residual = 0.00874279, No Iterations 10
time step continuity errors : sum local = 0.0375518, global = 0.00274254, cumulative = 0.2525
smoothSolver:  Solving for omega, Initial residual = 0.0190989, Final residual = 0.00053425, No Iterations 2
smoothSolver:  Solving for k, Initial residual = 0.0466634, Final residual = 0.00149521, No Iterations 2
ExecutionTime = 6.18929 s  ClockTime = 6 s

Time = 50s

smoothSolver:  Solving for Ux, Initial residual = 0.0134381, Final residual = 0.000411132, No Iterations 2
smoothSolver:  Solving for Uy, Initial residual = 0.0134155, Final residual = 0.000413919, No Iterations 2
smoothSolver:  Solving for Uz, Initial residual = 0.00831827, Final residual = 0.000227835, No Iterations 2
DICPCG:  Solving for p, Initial residual = 0.0888448, Final residual = 0.00807796, No Iterations 14
time step continuity errors : sum local = 0.0350083, global = -0.000552154, cumulative = 0.251948
smoothSolver:  Solving for omega, Initial residual = 0.0184611, Final residual = 0.000531603, No Iterations 2
smoothSolver:  Solving for k, Initial residual = 0.0445147, Final residual = 0.00149087, No Iterations 2
ExecutionTime = 6.56045 s  ClockTime = 7 s

Time = 51s

smoothSolver:  Solving for Ux, Initial residual = 0.0130156, Final residual = 0.000406718, No Iterations 2
smoothSolver:  Solving for Uy, Initial residual = 0.0127537, Final residual = 0.000391135, No Iterations 2
smoothSolver:  Solving for Uz, Initial residual = 0.00822103, Final residual = 0.000232147, No Iterations 2
DICPCG:  Solving for p, Initial residual = 0.0818295, Final residual = 0.00739857, No Iterations 15
time step continuity errors : sum local = 0.0329326, global = -0.00179777, cumulative = 0.25015
smoothSolver:  Solving for omega, Initial residual = 0.0178635, Final residual = 0.000528881, No Iterations 2
smoothSolver:  Solving for k, Initial residual = 0.0425425, Final residual = 0.00147774, No Iterations 2
ExecutionTime = 6.67843 s  ClockTime = 7 s

Time = 52s

smoothSolver:  Solving for Ux, Initial residual = 0.0125528, Final residual = 0.000399869, No Iterations 2
smoothSolver:  Solving for Uy, Initial residual = 0.012364, Final residual = 0.000384535, No Iterations 2
smoothSolver:  Solving for Uz, Initial residual = 0.00815592, Final residual = 0.000238329, No Iterations 2
DICPCG:  Solving for p, Initial residual = 0.072683, Final residual = 0.00674565, No Iterations 7
time step continuity errors : sum local = 0.0320767, global = -0.0110867, cumulative = 0.239064
smoothSolver:  Solving for omega, Initial residual = 0.0172516, Final residual = 0.000522682, No Iterations 2
smoothSolver:  Solving for k, Initial residual = 0.040612, Final residual = 0.00145354, No Iterations 2
ExecutionTime = 6.77904 s  ClockTime = 7 s

Time = 53s

smoothSolver:  Solving for Ux, Initial residual = 0.0119713, Final residual = 0.000384564, No Iterations 2
smoothSolver:  Solving for Uy, Initial residual = 0.0118631, Final residual = 0.000370475, No Iterations 2
smoothSolver:  Solving for Uz, Initial residual = 0.00792331, Final residual = 0.000231976, No Iterations 2
DICPCG:  Solving for p, Initial residual = 0.068085, Final residual = 0.00626501, No Iterations 19
time step continuity errors : sum local = 0.0307434, global = -0.00557661, cumulative = 0.233487
smoothSolver:  Solving for omega, Initial residual = 0.0167981, Final residual = 0.000517764, No Iterations 2
smoothSolver:  Solving for k, Initial residual = 0.0390388, Final residual = 0.00142905, No Iterations 2
ExecutionTime = 6.89375 s  ClockTime = 7 s

Time = 54s

smoothSolver:  Solving for Ux, Initial residual = 0.0114572, Final residual = 0.000367635, No Iterations 2
smoothSolver:  Solving for Uy, Initial residual = 0.0116116, Final residual = 0.000365781, No Iterations 2
smoothSolver:  Solving for Uz, Initial residual = 0.00772668, Final residual = 0.000232079, No Iterations 2
DICPCG:  Solving for p, Initial residual = 0.0620332, Final residual = 0.00568769, No Iterations 8
time step continuity errors : sum local = 0.0296804, global = -0.0050651, cumulative = 0.228422
smoothSolver:  Solving for omega, Initial residual = 0.0162746, Final residual = 0.000508591, No Iterations 2
smoothSolver:  Solving for k, Initial residual = 0.0373996, Final residual = 0.00139607, No Iterations 2
ExecutionTime = 6.99503 s  ClockTime = 7 s

Time = 55s

smoothSolver:  Solving for Ux, Initial residual = 0.0111595, Final residual = 0.000361291, No Iterations 2
smoothSolver:  Solving for Uy, Initial residual = 0.0113035, Final residual = 0.000361314, No Iterations 2
smoothSolver:  Solving for Uz, Initial residual = 0.00753105, Final residual = 0.000228806, No Iterations 2
DICPCG:  Solving for p, Initial residual = 0.0591787, Final residual = 0.00547509, No Iterations 9
time step continuity errors : sum local = 0.0290873, global = -0.00128906, cumulative = 0.227133
smoothSolver:  Solving for omega, Initial residual = 0.0158983, Final residual = 0.000502165, No Iterations 2
smoothSolver:  Solving for k, Initial residual = 0.0359488, Final residual = 0.00136489, No Iterations 2
ExecutionTime = 7.09581 s  ClockTime = 7 s

Time = 56s

smoothSolver:  Solving for Ux, Initial residual = 0.0108859, Final residual = 0.00035532, No Iterations 2
smoothSolver:  Solving for Uy, Initial residual = 0.0110504, Final residual = 0.00035726, No Iterations 2
smoothSolver:  Solving for Uz, Initial residual = 0.00746753, Final residual = 0.000231938, No Iterations 2
DICPCG:  Solving for p, Initial residual = 0.0606755, Final residual = 0.00587886, No Iterations 10
time step continuity errors : sum local = 0.0294003, global = 0.00123312, cumulative = 0.228366
smoothSolver:  Solving for omega, Initial residual = 0.0155071, Final residual = 0.000497284, No Iterations 2
smoothSolver:  Solving for k, Initial residual = 0.0346314, Final residual = 0.00133415, No Iterations 2
ExecutionTime = 7.19897 s  ClockTime = 7 s

Time = 57s

smoothSolver:  Solving for Ux, Initial residual = 0.0106614, Final residual = 0.000352567, No Iterations 2
smoothSolver:  Solving for Uy, Initial residual = 0.010786, Final residual = 0.000351872, No Iterations 2
smoothSolver:  Solving for Uz, Initial residual = 0.00741903, Final residual = 0.000234933, No Iterations 2
DICPCG:  Solving for p, Initial residual = 0.0586056, Final residual = 0.00582225, No Iterations 10
time step continuity errors : sum local = 0.0293715, global = 0.0024624, cumulative = 0.230828
smoothSolver:  Solving for omega, Initial residual = 0.0151585, Final residual = 0.000494024, No Iterations 2
smoothSolver:  Solving for k, Initial residual = 0.0334348, Final residual = 0.00130389, No Iterations 2
ExecutionTime = 7.29087 s  ClockTime = 8 s

Time = 58s

smoothSolver:  Solving for Ux, Initial residual = 0.0105298, Final residual = 0.000354587, No Iterations 2
smoothSolver:  Solving for Uy, Initial residual = 0.0105662, Final residual = 0.000348693, No Iterations 2
smoothSolver:  Solving for Uz, Initial residual = 0.00729436, Final residual = 0.00023297, No Iterations 2
DICPCG:  Solving for p, Initial residual = 0.0580897, Final residual = 0.00568756, No Iterations 9
time step continuity errors : sum local = 0.0278118, global = 0.00280137, cumulative = 0.23363
smoothSolver:  Solving for omega, Initial residual = 0.0148864, Final residual = 0.000491265, No Iterations 2
smoothSolver:  Solving for k, Initial residual = 0.0324246, Final residual = 0.00127322, No Iterations 2
ExecutionTime = 7.38932 s  ClockTime = 8 s

Time = 59s

smoothSolver:  Solving for Ux, Initial residual = 0.0104078, Final residual = 0.000355063, No Iterations 2
smoothSolver:  Solving for Uy, Initial residual = 0.0104141, Final residual = 0.000348213, No Iterations 2
smoothSolver:  Solving for Uz, Initial residual = 0.0070956, Final residual = 0.000228421, No Iterations 2
DICPCG:  Solving for p, Initial residual = 0.0557313, Final residual = 0.00522218, No Iterations 14
time step continuity errors : sum local = 0.0257278, global = 0.00240172, cumulative = 0.236031
smoothSolver:  Solving for omega, Initial residual = 0.0147241, Final residual = 0.000488043, No Iterations 2
smoothSolver:  Solving for k, Initial residual = 0.0315756, Final residual = 0.00124364, No Iterations 2
ExecutionTime = 7.49536 s  ClockTime = 8 s

Time = 60s

smoothSolver:  Solving for Ux, Initial residual = 0.0103058, Final residual = 0.000352645, No Iterations 2
smoothSolver:  Solving for Uy, Initial residual = 0.0103837, Final residual = 0.000349701, No Iterations 2
smoothSolver:  Solving for Uz, Initial residual = 0.00699168, Final residual = 0.000226732, No Iterations 2
DICPCG:  Solving for p, Initial residual = 0.0569181, Final residual = 0.00490133, No Iterations 8
time step continuity errors : sum local = 0.0231091, global = 0.00164066, cumulative = 0.237672
smoothSolver:  Solving for omega, Initial residual = 0.0145743, Final residual = 0.00048472, No Iterations 2
smoothSolver:  Solving for k, Initial residual = 0.0308331, Final residual = 0.00121358, No Iterations 2
ExecutionTime = 7.59988 s  ClockTime = 8 s

Time = 61s

smoothSolver:  Solving for Ux, Initial residual = 0.0102174, Final residual = 0.000350367, No Iterations 2
smoothSolver:  Solving for Uy, Initial residual = 0.0103512, Final residual = 0.000351739, No Iterations 2
smoothSolver:  Solving for Uz, Initial residual = 0.0068521, Final residual = 0.000225832, No Iterations 2
DICPCG:  Solving for p, Initial residual = 0.0569892, Final residual = 0.00496906, No Iterations 9
time step continuity errors : sum local = 0.0227803, global = 0.00144886, cumulative = 0.239121
smoothSolver:  Solving for omega, Initial residual = 0.0144981, Final residual = 0.00048247, No Iterations 2
smoothSolver:  Solving for k, Initial residual = 0.030159, Final residual = 0.00118442, No Iterations 2
ExecutionTime = 7.70319 s  ClockTime = 8 s

Time = 62s

smoothSolver:  Solving for Ux, Initial residual = 0.0101558, Final residual = 0.000348812, No Iterations 2
smoothSolver:  Solving for Uy, Initial residual = 0.0103621, Final residual = 0.00035513, No Iterations 2
smoothSolver:  Solving for Uz, Initial residual = 0.00676448, Final residual = 0.000226269, No Iterations 2
DICPCG:  Solving for p, Initial residual = 0.0573579, Final residual = 0.00528264, No Iterations 12
time step continuity errors : sum local = 0.0234629, global = 0.00167291, cumulative = 0.240794
smoothSolver:  Solving for omega, Initial residual = 0.0144631, Final residual = 0.00048021, No Iterations 2
smoothSolver:  Solving for k, Initial residual = 0.0296084, Final residual = 0.00115622, No Iterations 2
ExecutionTime = 7.80228 s  ClockTime = 8 s

Time = 63s

smoothSolver:  Solving for Ux, Initial residual = 0.0101154, Final residual = 0.000348572, No Iterations 2
smoothSolver:  Solving for Uy, Initial residual = 0.0103542, Final residual = 0.000358666, No Iterations 2
smoothSolver:  Solving for Uz, Initial residual = 0.00671855, Final residual = 0.000226107, No Iterations 2
DICPCG:  Solving for p, Initial residual = 0.0576826, Final residual = 0.00548726, No Iterations 10
time step continuity errors : sum local = 0.0236416, global = 0.000419115, cumulative = 0.241213
smoothSolver:  Solving for omega, Initial residual = 0.0144453, Final residual = 0.000477067, No Iterations 2
smoothSolver:  Solving for k, Initial residual = 0.0290707, Final residual = 0.00112833, No Iterations 2
ExecutionTime = 7.90367 s  ClockTime = 8 s

Time = 64s

smoothSolver:  Solving for Ux, Initial residual = 0.0100615, Final residual = 0.000348371, No Iterations 2
smoothSolver:  Solving for Uy, Initial residual = 0.0103334, Final residual = 0.000361705, No Iterations 2
smoothSolver:  Solving for Uz, Initial residual = 0.00666796, Final residual = 0.000226464, No Iterations 2
DICPCG:  Solving for p, Initial residual = 0.0578402, Final residual = 0.00532263, No Iterations 8
time step continuity errors : sum local = 0.0222824, global = -0.00118584, cumulative = 0.240027
smoothSolver:  Solving for omega, Initial residual = 0.0144251, Final residual = 0.000473845, No Iterations 2
smoothSolver:  Solving for k, Initial residual = 0.0285701, Final residual = 0.00109938, No Iterations 2
ExecutionTime = 8.00121 s  ClockTime = 8 s

Time = 65s

smoothSolver:  Solving for Ux, Initial residual = 0.00998782, Final residual = 0.000347134, No Iterations 2
smoothSolver:  Solving for Uy, Initial residual = 0.0103178, Final residual = 0.000364551, No Iterations 2
smoothSolver:  Solving for Uz, Initial residual = 0.00658618, Final residual = 0.000226363, No Iterations 2
DICPCG:  Solving for p, Initial residual = 0.056985, Final residual = 0.00534938, No Iterations 8
time step continuity errors : sum local = 0.0219035, global = -0.00204511, cumulative = 0.237982
smoothSolver:  Solving for omega, Initial residual = 0.0143455, Final residual = 0.000466695, No Iterations 2
smoothSolver:  Solving for k, Initial residual = 0.0280564, Final residual = 0.00106909, No Iterations 2
ExecutionTime = 8.08919 s  ClockTime = 8 s

Time = 66s

smoothSolver:  Solving for Ux, Initial residual = 0.00992892, Final residual = 0.000346913, No Iterations 2
smoothSolver:  Solving for Uy, Initial residual = 0.0103627, Final residual = 0.000369971, No Iterations 2
smoothSolver:  Solving for Uz, Initial residual = 0.00650138, Final residual = 0.000225377, No Iterations 2
DICPCG:  Solving for p, Initial residual = 0.0565818, Final residual = 0.00510168, No Iterations 9
time step continuity errors : sum local = 0.0205001, global = -0.00269446, cumulative = 0.235288
smoothSolver:  Solving for omega, Initial residual = 0.0142553, Final residual = 0.000459311, No Iterations 2
smoothSolver:  Solving for k, Initial residual = 0.0275702, Final residual = 0.00104021, No Iterations 2
ExecutionTime = 8.18622 s  ClockTime = 8 s

Time = 67s

smoothSolver:  Solving for Ux, Initial residual = 0.00989356, Final residual = 0.000347879, No Iterations 2
smoothSolver:  Solving for Uy, Initial residual = 0.0104536, Final residual = 0.000377037, No Iterations 2
smoothSolver:  Solving for Uz, Initial residual = 0.00642239, Final residual = 0.000224394, No Iterations 2
DICPCG:  Solving for p, Initial residual = 0.0556443, Final residual = 0.00496436, No Iterations 10
time step continuity errors : sum local = 0.0196179, global = -0.00401326, cumulative = 0.231274
smoothSolver:  Solving for omega, Initial residual = 0.0141404, Final residual = 0.000450512, No Iterations 2
smoothSolver:  Solving for k, Initial residual = 0.0270808, Final residual = 0.0010131, No Iterations 2
ExecutionTime = 8.29284 s  ClockTime = 9 s

Time = 68s

smoothSolver:  Solving for Ux, Initial residual = 0.00986891, Final residual = 0.000349445, No Iterations 2
smoothSolver:  Solving for Uy, Initial residual = 0.0105188, Final residual = 0.000384091, No Iterations 2
smoothSolver:  Solving for Uz, Initial residual = 0.00637267, Final residual = 0.000224688, No Iterations 2
DICPCG:  Solving for p, Initial residual = 0.0548127, Final residual = 0.00534795, No Iterations 15
time step continuity errors : sum local = 0.0209946, global = -0.0041536, cumulative = 0.227121
smoothSolver:  Solving for omega, Initial residual = 0.0139848, Final residual = 0.000442392, No Iterations 2
smoothSolver:  Solving for k, Initial residual = 0.0266035, Final residual = 0.000987783, No Iterations 2
ExecutionTime = 8.40064 s  ClockTime = 9 s

Time = 69s

smoothSolver:  Solving for Ux, Initial residual = 0.00982285, Final residual = 0.000351291, No Iterations 2
smoothSolver:  Solving for Uy, Initial residual = 0.0105138, Final residual = 0.000388714, No Iterations 2
smoothSolver:  Solving for Uz, Initial residual = 0.00636854, Final residual = 0.000227586, No Iterations 2
DICPCG:  Solving for p, Initial residual = 0.053589, Final residual = 0.00473495, No Iterations 7
time step continuity errors : sum local = 0.0188453, global = -0.00573059, cumulative = 0.22139
smoothSolver:  Solving for omega, Initial residual = 0.0137917, Final residual = 0.000434124, No Iterations 2
smoothSolver:  Solving for k, Initial residual = 0.0260506, Final residual = 0.000961564, No Iterations 2
ExecutionTime = 8.50118 s  ClockTime = 9 s

Time = 70s

smoothSolver:  Solving for Ux, Initial residual = 0.00972177, Final residual = 0.000351306, No Iterations 2
smoothSolver:  Solving for Uy, Initial residual = 0.0104758, Final residual = 0.000390593, No Iterations 2
smoothSolver:  Solving for Uz, Initial residual = 0.0063531, Final residual = 0.000228597, No Iterations 2
DICPCG:  Solving for p, Initial residual = 0.0531472, Final residual = 0.0048207, No Iterations 8
time step continuity errors : sum local = 0.0191669, global = -0.00423674, cumulative = 0.217153
smoothSolver:  Solving for omega, Initial residual = 0.0135127, Final residual = 0.000424868, No Iterations 2
smoothSolver:  Solving for k, Initial residual = 0.0254011, Final residual = 0.000934686, No Iterations 2
ExecutionTime = 8.593 s  ClockTime = 9 s

Time = 71s

smoothSolver:  Solving for Ux, Initial residual = 0.00964078, Final residual = 0.000350049, No Iterations 2
smoothSolver:  Solving for Uy, Initial residual = 0.0104796, Final residual = 0.000393495, No Iterations 2
smoothSolver:  Solving for Uz, Initial residual = 0.00633532, Final residual = 0.000229152, No Iterations 2
DICPCG:  Solving for p, Initial residual = 0.0527897, Final residual = 0.00452713, No Iterations 9
time step continuity errors : sum local = 0.0181821, global = -0.00196263, cumulative = 0.215191
smoothSolver:  Solving for omega, Initial residual = 0.01323, Final residual = 0.000416623, No Iterations 2
smoothSolver:  Solving for k, Initial residual = 0.024757, Final residual = 0.000909192, No Iterations 2
ExecutionTime = 8.69198 s  ClockTime = 9 s

Time = 72s

smoothSolver:  Solving for Ux, Initial residual = 0.00956114, Final residual = 0.000348039, No Iterations 2
smoothSolver:  Solving for Uy, Initial residual = 0.0104984, Final residual = 0.000396248, No Iterations 2
smoothSolver:  Solving for Uz, Initial residual = 0.00627701, Final residual = 0.000227309, No Iterations 2
DICPCG:  Solving for p, Initial residual = 0.0535508, Final residual = 0.00453272, No Iterations 10
time step continuity errors : sum local = 0.0178185, global = -7.66635e-05, cumulative = 0.215114
smoothSolver:  Solving for omega, Initial residual = 0.0129401, Final residual = 0.000409602, No Iterations 2
smoothSolver:  Solving for k, Initial residual = 0.024127, Final residual = 0.000887181, No Iterations 2
ExecutionTime = 8.79287 s  ClockTime = 9 s

Time = 73s

smoothSolver:  Solving for Ux, Initial residual = 0.00950174, Final residual = 0.000349127, No Iterations 2
smoothSolver:  Solving for Uy, Initial residual = 0.0104696, Final residual = 0.000397565, No Iterations 2
smoothSolver:  Solving for Uz, Initial residual = 0.00617992, Final residual = 0.000223214, No Iterations 2
DICPCG:  Solving for p, Initial residual = 0.0532125, Final residual = 0.00505656, No Iterations 9
time step continuity errors : sum local = 0.0196621, global = 0.00160475, cumulative = 0.216719
smoothSolver:  Solving for omega, Initial residual = 0.0126976, Final residual = 0.000404151, No Iterations 2
smoothSolver:  Solving for k, Initial residual = 0.0235151, Final residual = 0.000867552, No Iterations 2
ExecutionTime = 8.89465 s  ClockTime = 9 s

Time = 74s

smoothSolver:  Solving for Ux, Initial residual = 0.0094681, Final residual = 0.000354231, No Iterations 2
smoothSolver:  Solving for Uy, Initial residual = 0.0103397, Final residual = 0.000395551, No Iterations 2
smoothSolver:  Solving for Uz, Initial residual = 0.00608379, Final residual = 0.000218882, No Iterations 2
DICPCG:  Solving for p, Initial residual = 0.0532923, Final residual = 0.00527784, No Iterations 8
time step continuity errors : sum local = 0.0201798, global = 0.00360607, cumulative = 0.220325
smoothSolver:  Solving for omega, Initial residual = 0.0125096, Final residual = 0.000398862, No Iterations 2
smoothSolver:  Solving for k, Initial residual = 0.0230016, Final residual = 0.000850122, No Iterations 2
ExecutionTime = 8.99119 s  ClockTime = 9 s

Time = 75s

smoothSolver:  Solving for Ux, Initial residual = 0.00945059, Final residual = 0.000358446, No Iterations 2
smoothSolver:  Solving for Uy, Initial residual = 0.0102291, Final residual = 0.000393745, No Iterations 2
smoothSolver:  Solving for Uz, Initial residual = 0.00601022, Final residual = 0.000215619, No Iterations 2
DICPCG:  Solving for p, Initial residual = 0.0543536, Final residual = 0.00501085, No Iterations 10
time step continuity errors : sum local = 0.0188342, global = 0.00515015, cumulative = 0.225475
smoothSolver:  Solving for omega, Initial residual = 0.012334, Final residual = 0.000392829, No Iterations 2
smoothSolver:  Solving for k, Initial residual = 0.0226308, Final residual = 0.000834943, No Iterations 2
ExecutionTime = 9.09301 s  ClockTime = 9 s

Time = 76s

smoothSolver:  Solving for Ux, Initial residual = 0.00940809, Final residual = 0.000356067, No Iterations 2
smoothSolver:  Solving for Uy, Initial residual = 0.0101841, Final residual = 0.000395599, No Iterations 2
smoothSolver:  Solving for Uz, Initial residual = 0.0059241, Final residual = 0.000212611, No Iterations 2
DICPCG:  Solving for p, Initial residual = 0.0556644, Final residual = 0.005358, No Iterations 15
time step continuity errors : sum local = 0.0195774, global = 0.00375493, cumulative = 0.22923
smoothSolver:  Solving for omega, Initial residual = 0.0122061, Final residual = 0.000388232, No Iterations 2
smoothSolver:  Solving for k, Initial residual = 0.022306, Final residual = 0.000821638, No Iterations 2
ExecutionTime = 9.20259 s  ClockTime = 9 s

Time = 77s

smoothSolver:  Solving for Ux, Initial residual = 0.00944744, Final residual = 0.000356082, No Iterations 2
smoothSolver:  Solving for Uy, Initial residual = 0.0102592, Final residual = 0.000401084, No Iterations 2
smoothSolver:  Solving for Uz, Initial residual = 0.00581315, Final residual = 0.000207311, No Iterations 2
DICPCG:  Solving for p, Initial residual = 0.0576016, Final residual = 0.00540657, No Iterations 8
time step continuity errors : sum local = 0.0190051, global = 0.00592891, cumulative = 0.235159
smoothSolver:  Solving for omega, Initial residual = 0.0120959, Final residual = 0.000384966, No Iterations 2
smoothSolver:  Solving for k, Initial residual = 0.0220544, Final residual = 0.000810814, No Iterations 2
ExecutionTime = 9.29765 s  ClockTime = 10 s

Time = 78s

smoothSolver:  Solving for Ux, Initial residual = 0.00938008, Final residual = 0.000355059, No Iterations 2
smoothSolver:  Solving for Uy, Initial residual = 0.0101443, Final residual = 0.000398988, No Iterations 2
smoothSolver:  Solving for Uz, Initial residual = 0.00575596, Final residual = 0.000204844, No Iterations 2
DICPCG:  Solving for p, Initial residual = 0.0579435, Final residual = 0.00555069, No Iterations 9
time step continuity errors : sum local = 0.019436, global = 0.00598163, cumulative = 0.241141
smoothSolver:  Solving for omega, Initial residual = 0.0119861, Final residual = 0.000380343, No Iterations 2
smoothSolver:  Solving for k, Initial residual = 0.0218367, Final residual = 0.000802123, No Iterations 2
ExecutionTime = 9.39797 s  ClockTime = 10 s

Time = 79s

smoothSolver:  Solving for Ux, Initial residual = 0.00934217, Final residual = 0.000354834, No Iterations 2
smoothSolver:  Solving for Uy, Initial residual = 0.0100557, Final residual = 0.000396213, No Iterations 2
smoothSolver:  Solving for Uz, Initial residual = 0.00569641, Final residual = 0.000202109, No Iterations 2
DICPCG:  Solving for p, Initial residual = 0.0583107, Final residual = 0.00576774, No Iterations 10
time step continuity errors : sum local = 0.0196693, global = 0.00590388, cumulative = 0.247044
smoothSolver:  Solving for omega, Initial residual = 0.0119072, Final residual = 0.000380642, No Iterations 2
smoothSolver:  Solving for k, Initial residual = 0.0216611, Final residual = 0.000796266, No Iterations 2
ExecutionTime = 9.49887 s  ClockTime = 10 s

Time = 80s

smoothSolver:  Solving for Ux, Initial residual = 0.00929687, Final residual = 0.000354036, No Iterations 2
smoothSolver:  Solving for Uy, Initial residual = 0.00996235, Final residual = 0.000391447, No Iterations 2
smoothSolver:  Solving for Uz, Initial residual = 0.00559468, Final residual = 0.00019737, No Iterations 2
DICPCG:  Solving for p, Initial residual = 0.0586302, Final residual = 0.00552575, No Iterations 10
time step continuity errors : sum local = 0.0183025, global = 0.00544562, cumulative = 0.25249
smoothSolver:  Solving for omega, Initial residual = 0.0118198, Final residual = 0.000378589, No Iterations 2
smoothSolver:  Solving for k, Initial residual = 0.0215485, Final residual = 0.00079372, No Iterations 2
ExecutionTime = 9.59946 s  ClockTime = 10 s

Time = 81s

smoothSolver:  Solving for Ux, Initial residual = 0.00925267, Final residual = 0.000354405, No Iterations 2
smoothSolver:  Solving for Uy, Initial residual = 0.00985021, Final residual = 0.00038614, No Iterations 2
smoothSolver:  Solving for Uz, Initial residual = 0.00548794, Final residual = 0.000192313, No Iterations 2
DICPCG:  Solving for p, Initial residual = 0.0592275, Final residual = 0.0056122, No Iterations 10
time step continuity errors : sum local = 0.0182338, global = 0.00506049, cumulative = 0.257551
smoothSolver:  Solving for omega, Initial residual = 0.011737, Final residual = 0.000375452, No Iterations 2
smoothSolver:  Solving for k, Initial residual = 0.0214466, Final residual = 0.000792696, No Iterations 2
ExecutionTime = 9.72894 s  ClockTime = 10 s

Time = 82s

smoothSolver:  Solving for Ux, Initial residual = 0.0092009, Final residual = 0.000354439, No Iterations 2
smoothSolver:  Solving for Uy, Initial residual = 0.00971275, Final residual = 0.000380181, No Iterations 2
smoothSolver:  Solving for Uz, Initial residual = 0.00540688, Final residual = 0.000188407, No Iterations 2
DICPCG:  Solving for p, Initial residual = 0.0600785, Final residual = 0.00598396, No Iterations 8
time step continuity errors : sum local = 0.0191177, global = 0.00597115, cumulative = 0.263522
smoothSolver:  Solving for omega, Initial residual = 0.0116234, Final residual = 0.000371139, No Iterations 2
smoothSolver:  Solving for k, Initial residual = 0.021337, Final residual = 0.000792455, No Iterations 2
ExecutionTime = 9.93209 s  ClockTime = 10 s

Time = 83s

smoothSolver:  Solving for Ux, Initial residual = 0.00911262, Final residual = 0.000352, No Iterations 2
smoothSolver:  Solving for Uy, Initial residual = 0.00953936, Final residual = 0.000372791, No Iterations 2
smoothSolver:  Solving for Uz, Initial residual = 0.00534423, Final residual = 0.000185529, No Iterations 2
DICPCG:  Solving for p, Initial residual = 0.0598975, Final residual = 0.00598841, No Iterations 14
time step continuity errors : sum local = 0.0188983, global = 0.00429961, cumulative = 0.267821
smoothSolver:  Solving for omega, Initial residual = 0.0114864, Final residual = 0.000365268, No Iterations 2
smoothSolver:  Solving for k, Initial residual = 0.0212199, Final residual = 0.000791766, No Iterations 2
ExecutionTime = 10.1089 s  ClockTime = 10 s

Time = 84s

smoothSolver:  Solving for Ux, Initial residual = 0.0091623, Final residual = 0.000351827, No Iterations 2
smoothSolver:  Solving for Uy, Initial residual = 0.00943995, Final residual = 0.000370261, No Iterations 2
smoothSolver:  Solving for Uz, Initial residual = 0.0052772, Final residual = 0.000181595, No Iterations 2
DICPCG:  Solving for p, Initial residual = 0.0614901, Final residual = 0.00551434, No Iterations 6
time step continuity errors : sum local = 0.0166768, global = 0.00449688, cumulative = 0.272318
smoothSolver:  Solving for omega, Initial residual = 0.01139, Final residual = 0.000362795, No Iterations 2
smoothSolver:  Solving for k, Initial residual = 0.0211756, Final residual = 0.000794981, No Iterations 2
ExecutionTime = 10.2707 s  ClockTime = 10 s

Time = 85s

smoothSolver:  Solving for Ux, Initial residual = 0.00896377, Final residual = 0.000347306, No Iterations 2
smoothSolver:  Solving for Uy, Initial residual = 0.00917679, Final residual = 0.000360755, No Iterations 2
smoothSolver:  Solving for Uz, Initial residual = 0.00520259, Final residual = 0.000178456, No Iterations 2
DICPCG:  Solving for p, Initial residual = 0.059638, Final residual = 0.00530086, No Iterations 8
time step continuity errors : sum local = 0.0160603, global = 0.00272979, cumulative = 0.275048
smoothSolver:  Solving for omega, Initial residual = 0.0112214, Final residual = 0.000358651, No Iterations 2
smoothSolver:  Solving for k, Initial residual = 0.0210575, Final residual = 0.000797298, No Iterations 2
ExecutionTime = 10.3811 s  ClockTime = 11 s

Time = 86s

smoothSolver:  Solving for Ux, Initial residual = 0.00875441, Final residual = 0.000342361, No Iterations 2
smoothSolver:  Solving for Uy, Initial residual = 0.00898166, Final residual = 0.000356055, No Iterations 2
smoothSolver:  Solving for Uz, Initial residual = 0.00511165, Final residual = 0.000174395, No Iterations 2
DICPCG:  Solving for p, Initial residual = 0.0585587, Final residual = 0.0055808, No Iterations 13
time step continuity errors : sum local = 0.0166752, global = -0.0014418, cumulative = 0.273606
smoothSolver:  Solving for omega, Initial residual = 0.0110805, Final residual = 0.000353662, No Iterations 2
smoothSolver:  Solving for k, Initial residual = 0.0209474, Final residual = 0.000798379, No Iterations 2
ExecutionTime = 10.4944 s  ClockTime = 11 s

Time = 87s

smoothSolver:  Solving for Ux, Initial residual = 0.00866166, Final residual = 0.000337797, No Iterations 2
smoothSolver:  Solving for Uy, Initial residual = 0.00892025, Final residual = 0.000356498, No Iterations 2
smoothSolver:  Solving for Uz, Initial residual = 0.00498568, Final residual = 0.000168713, No Iterations 2
DICPCG:  Solving for p, Initial residual = 0.0572066, Final residual = 0.00570325, No Iterations 13
time step continuity errors : sum local = 0.0169931, global = -0.00336451, cumulative = 0.270242
smoothSolver:  Solving for omega, Initial residual = 0.0109646, Final residual = 0.000349767, No Iterations 2
smoothSolver:  Solving for k, Initial residual = 0.0209438, Final residual = 0.000803246, No Iterations 2
ExecutionTime = 10.6063 s  ClockTime = 11 s

Time = 88s

smoothSolver:  Solving for Ux, Initial residual = 0.00857112, Final residual = 0.000335561, No Iterations 2
smoothSolver:  Solving for Uy, Initial residual = 0.00886738, Final residual = 0.000355268, No Iterations 2
smoothSolver:  Solving for Uz, Initial residual = 0.00493144, Final residual = 0.000166891, No Iterations 2
DICPCG:  Solving for p, Initial residual = 0.0551435, Final residual = 0.00451579, No Iterations 6
time step continuity errors : sum local = 0.0138383, global = -0.00689716, cumulative = 0.263344
smoothSolver:  Solving for omega, Initial residual = 0.0108924, Final residual = 0.00034702, No Iterations 2
smoothSolver:  Solving for k, Initial residual = 0.0209452, Final residual = 0.000809403, No Iterations 2
ExecutionTime = 10.7128 s  ClockTime = 11 s

Time = 89s

smoothSolver:  Solving for Ux, Initial residual = 0.00834702, Final residual = 0.000329041, No Iterations 2
smoothSolver:  Solving for Uy, Initial residual = 0.00864012, Final residual = 0.000345456, No Iterations 2
smoothSolver:  Solving for Uz, Initial residual = 0.00489165, Final residual = 0.000165406, No Iterations 2
DICPCG:  Solving for p, Initial residual = 0.0539336, Final residual = 0.00529757, No Iterations 11
time step continuity errors : sum local = 0.0162419, global = -0.00545, cumulative = 0.257894
smoothSolver:  Solving for omega, Initial residual = 0.0108458, Final residual = 0.000342148, No Iterations 2
smoothSolver:  Solving for k, Initial residual = 0.0209646, Final residual = 0.000813407, No Iterations 2
ExecutionTime = 10.8267 s  ClockTime = 11 s

Time = 90s

smoothSolver:  Solving for Ux, Initial residual = 0.00818569, Final residual = 0.000324696, No Iterations 2
smoothSolver:  Solving for Uy, Initial residual = 0.00850903, Final residual = 0.000339657, No Iterations 2
smoothSolver:  Solving for Uz, Initial residual = 0.0048364, Final residual = 0.000163112, No Iterations 2
DICPCG:  Solving for p, Initial residual = 0.0522547, Final residual = 0.00488103, No Iterations 10
time step continuity errors : sum local = 0.0152865, global = -0.00449821, cumulative = 0.253396
smoothSolver:  Solving for omega, Initial residual = 0.0107637, Final residual = 0.000337581, No Iterations 2
smoothSolver:  Solving for k, Initial residual = 0.020929, Final residual = 0.000818008, No Iterations 2
ExecutionTime = 10.9363 s  ClockTime = 11 s

Time = 91s

smoothSolver:  Solving for Ux, Initial residual = 0.00809039, Final residual = 0.000320838, No Iterations 2
smoothSolver:  Solving for Uy, Initial residual = 0.00836577, Final residual = 0.000334899, No Iterations 2
smoothSolver:  Solving for Uz, Initial residual = 0.00476484, Final residual = 0.000160764, No Iterations 2
DICPCG:  Solving for p, Initial residual = 0.0508068, Final residual = 0.00499328, No Iterations 10
time step continuity errors : sum local = 0.0159268, global = -0.00219613, cumulative = 0.2512
smoothSolver:  Solving for omega, Initial residual = 0.0106727, Final residual = 0.000330713, No Iterations 2
smoothSolver:  Solving for k, Initial residual = 0.0209045, Final residual = 0.000822902, No Iterations 2
ExecutionTime = 11.0432 s  ClockTime = 11 s

Time = 92s

smoothSolver:  Solving for Ux, Initial residual = 0.00800353, Final residual = 0.000315558, No Iterations 2
smoothSolver:  Solving for Uy, Initial residual = 0.00823347, Final residual = 0.000330883, No Iterations 2
smoothSolver:  Solving for Uz, Initial residual = 0.0046938, Final residual = 0.000158793, No Iterations 2
DICPCG:  Solving for p, Initial residual = 0.0499388, Final residual = 0.00479247, No Iterations 10
time step continuity errors : sum local = 0.0152453, global = -6.73304e-06, cumulative = 0.251193
smoothSolver:  Solving for omega, Initial residual = 0.0105855, Final residual = 0.000323283, No Iterations 2
smoothSolver:  Solving for k, Initial residual = 0.0208849, Final residual = 0.000825151, No Iterations 2
ExecutionTime = 11.1483 s  ClockTime = 11 s

Time = 93s

smoothSolver:  Solving for Ux, Initial residual = 0.00789478, Final residual = 0.000309782, No Iterations 2
smoothSolver:  Solving for Uy, Initial residual = 0.00810119, Final residual = 0.000327336, No Iterations 2
smoothSolver:  Solving for Uz, Initial residual = 0.00465297, Final residual = 0.000158101, No Iterations 2
DICPCG:  Solving for p, Initial residual = 0.0483711, Final residual = 0.00470783, No Iterations 5
time step continuity errors : sum local = 0.0149981, global = 0.00254127, cumulative = 0.253735
smoothSolver:  Solving for omega, Initial residual = 0.0104792, Final residual = 0.000317522, No Iterations 2
smoothSolver:  Solving for k, Initial residual = 0.020858, Final residual = 0.000829034, No Iterations 2
ExecutionTime = 11.2463 s  ClockTime = 11 s

Time = 94s

smoothSolver:  Solving for Ux, Initial residual = 0.00768719, Final residual = 0.00030194, No Iterations 2
smoothSolver:  Solving for Uy, Initial residual = 0.00787062, Final residual = 0.000318747, No Iterations 2
smoothSolver:  Solving for Uz, Initial residual = 0.00466572, Final residual = 0.000160111, No Iterations 2
DICPCG:  Solving for p, Initial residual = 0.0470184, Final residual = 0.00460574, No Iterations 9
time step continuity errors : sum local = 0.01471, global = 0.00429034, cumulative = 0.258025
smoothSolver:  Solving for omega, Initial residual = 0.0103732, Final residual = 0.000312506, No Iterations 2
smoothSolver:  Solving for k, Initial residual = 0.0208575, Final residual = 0.000831618, No Iterations 2
ExecutionTime = 11.3473 s  ClockTime = 12 s

Time = 95s

smoothSolver:  Solving for Ux, Initial residual = 0.00762683, Final residual = 0.000300396, No Iterations 2
smoothSolver:  Solving for Uy, Initial residual = 0.00776945, Final residual = 0.000315969, No Iterations 2
smoothSolver:  Solving for Uz, Initial residual = 0.00462884, Final residual = 0.000160031, No Iterations 2
DICPCG:  Solving for p, Initial residual = 0.0462951, Final residual = 0.00461969, No Iterations 11
time step continuity errors : sum local = 0.0147896, global = 0.00555584, cumulative = 0.263581
smoothSolver:  Solving for omega, Initial residual = 0.0103043, Final residual = 0.000307873, No Iterations 2
smoothSolver:  Solving for k, Initial residual = 0.0208908, Final residual = 0.000835281, No Iterations 2
ExecutionTime = 11.4497 s  ClockTime = 12 s

Time = 96s

smoothSolver:  Solving for Ux, Initial residual = 0.00766655, Final residual = 0.000302565, No Iterations 2
smoothSolver:  Solving for Uy, Initial residual = 0.00772533, Final residual = 0.000314558, No Iterations 2
smoothSolver:  Solving for Uz, Initial residual = 0.00463969, Final residual = 0.000163721, No Iterations 2
DICPCG:  Solving for p, Initial residual = 0.0466512, Final residual = 0.0041734, No Iterations 21
time step continuity errors : sum local = 0.0133989, global = 0.00071157, cumulative = 0.264292
smoothSolver:  Solving for omega, Initial residual = 0.0102145, Final residual = 0.000301259, No Iterations 2
smoothSolver:  Solving for k, Initial residual = 0.0208806, Final residual = 0.000835493, No Iterations 2
ExecutionTime = 11.5633 s  ClockTime = 12 s

Time = 97s

smoothSolver:  Solving for Ux, Initial residual = 0.00764078, Final residual = 0.000300959, No Iterations 2
smoothSolver:  Solving for Uy, Initial residual = 0.00771278, Final residual = 0.000314546, No Iterations 2
smoothSolver:  Solving for Uz, Initial residual = 0.00488291, Final residual = 0.000179864, No Iterations 2
DICPCG:  Solving for p, Initial residual = 0.0531151, Final residual = 0.00465474, No Iterations 9
time step continuity errors : sum local = 0.0131377, global = 0.00356913, cumulative = 0.267862
smoothSolver:  Solving for omega, Initial residual = 0.0101312, Final residual = 0.000297226, No Iterations 2
smoothSolver:  Solving for k, Initial residual = 0.0208793, Final residual = 0.000837147, No Iterations 2
ExecutionTime = 11.6623 s  ClockTime = 12 s

Time = 98s

smoothSolver:  Solving for Ux, Initial residual = 0.00756066, Final residual = 0.00029931, No Iterations 2
smoothSolver:  Solving for Uy, Initial residual = 0.00762164, Final residual = 0.000311287, No Iterations 2
smoothSolver:  Solving for Uz, Initial residual = 0.00493078, Final residual = 0.000184105, No Iterations 2
DICPCG:  Solving for p, Initial residual = 0.0510194, Final residual = 0.00507153, No Iterations 8
time step continuity errors : sum local = 0.0146453, global = 0.000644548, cumulative = 0.268506
smoothSolver:  Solving for omega, Initial residual = 0.0100275, Final residual = 0.000292836, No Iterations 2
smoothSolver:  Solving for k, Initial residual = 0.0209075, Final residual = 0.000839807, No Iterations 2
ExecutionTime = 11.7645 s  ClockTime = 12 s

Time = 99s

smoothSolver:  Solving for Ux, Initial residual = 0.00742995, Final residual = 0.000295553, No Iterations 2
smoothSolver:  Solving for Uy, Initial residual = 0.00748453, Final residual = 0.000307356, No Iterations 2
smoothSolver:  Solving for Uz, Initial residual = 0.00495372, Final residual = 0.000186624, No Iterations 2
DICPCG:  Solving for p, Initial residual = 0.0524606, Final residual = 0.004416, No Iterations 10
time step continuity errors : sum local = 0.0122135, global = -0.00168968, cumulative = 0.266816
smoothSolver:  Solving for omega, Initial residual = 0.00992291, Final residual = 0.000288787, No Iterations 2
smoothSolver:  Solving for k, Initial residual = 0.0209169, Final residual = 0.000840878, No Iterations 2
ExecutionTime = 11.8669 s  ClockTime = 12 s

Time = 100s

smoothSolver:  Solving for Ux, Initial residual = 0.00736746, Final residual = 0.000294634, No Iterations 2
smoothSolver:  Solving for Uy, Initial residual = 0.00735949, Final residual = 0.000303084, No Iterations 2
smoothSolver:  Solving for Uz, Initial residual = 0.00495321, Final residual = 0.000188638, No Iterations 2
DICPCG:  Solving for p, Initial residual = 0.050761, Final residual = 0.00489639, No Iterations 12
time step continuity errors : sum local = 0.0136038, global = -0.00384772, cumulative = 0.262969
smoothSolver:  Solving for omega, Initial residual = 0.00981223, Final residual = 0.000286654, No Iterations 2
[...]
ExecutionTime = 31.3381 s  ClockTime = 32 s

Time = 276s

smoothSolver:  Solving for Ux, Initial residual = 0.00309644, Final residual = 0.000183762, No Iterations 2
smoothSolver:  Solving for Uy, Initial residual = 0.00389207, Final residual = 0.000239564, No Iterations 2
smoothSolver:  Solving for Uz, Initial residual = 0.00269627, Final residual = 0.000158903, No Iterations 2
DICPCG:  Solving for p, Initial residual = 0.0188972, Final residual = 0.00179552, No Iterations 9
time step continuity errors : sum local = 0.00196401, global = 0.000437442, cumulative = 0.319391
smoothSolver:  Solving for omega, Initial residual = 0.00310853, Final residual = 0.000130941, No Iterations 2
smoothSolver:  Solving for k, Initial residual = 0.00238958, Final residual = 0.000130759, No Iterations 2
ExecutionTime = 31.447 s  ClockTime = 32 s

Time = 277s

smoothSolver:  Solving for Ux, Initial residual = 0.00309046, Final residual = 0.00018354, No Iterations 2
smoothSolver:  Solving for Uy, Initial residual = 0.00386887, Final residual = 0.000238, No Iterations 2
smoothSolver:  Solving for Uz, Initial residual = 0.00265453, Final residual = 0.000156094, No Iterations 2
DICPCG:  Solving for p, Initial residual = 0.0185803, Final residual = 0.00183191, No Iterations 12
time step continuity errors : sum local = 0.00202145, global = 0.000356, cumulative = 0.319747
smoothSolver:  Solving for omega, Initial residual = 0.00308927, Final residual = 0.000129093, No Iterations 2
smoothSolver:  Solving for k, Initial residual = 0.00236215, Final residual = 0.000128515, No Iterations 2
ExecutionTime = 31.5569 s  ClockTime = 32 s

Time = 278s

smoothSolver:  Solving for Ux, Initial residual = 0.00308427, Final residual = 0.00018338, No Iterations 2
smoothSolver:  Solving for Uy, Initial residual = 0.00384918, Final residual = 0.00023688, No Iterations 2
smoothSolver:  Solving for Uz, Initial residual = 0.00261551, Final residual = 0.000153246, No Iterations 2
DICPCG:  Solving for p, Initial residual = 0.0185667, Final residual = 0.00180813, No Iterations 12
time step continuity errors : sum local = 0.00202022, global = 0.000498914, cumulative = 0.320246
smoothSolver:  Solving for omega, Initial residual = 0.00302053, Final residual = 0.000126964, No Iterations 2
smoothSolver:  Solving for k, Initial residual = 0.00233609, Final residual = 0.000126521, No Iterations 2
ExecutionTime = 31.6698 s  ClockTime = 32 s

Time = 279s

smoothSolver:  Solving for Ux, Initial residual = 0.0030819, Final residual = 0.000183308, No Iterations 2
smoothSolver:  Solving for Uy, Initial residual = 0.00381918, Final residual = 0.000235092, No Iterations 2
smoothSolver:  Solving for Uz, Initial residual = 0.00255945, Final residual = 0.000149661, No Iterations 2
DICPCG:  Solving for p, Initial residual = 0.0181785, Final residual = 0.00174605, No Iterations 23
time step continuity errors : sum local = 0.00199535, global = 0.000118233, cumulative = 0.320364
smoothSolver:  Solving for omega, Initial residual = 0.00297221, Final residual = 0.000125444, No Iterations 2
smoothSolver:  Solving for k, Initial residual = 0.00231471, Final residual = 0.000125029, No Iterations 2
ExecutionTime = 31.7935 s  ClockTime = 32 s

Time = 280s

smoothSolver:  Solving for Ux, Initial residual = 0.00307551, Final residual = 0.000182941, No Iterations 2
smoothSolver:  Solving for Uy, Initial residual = 0.00377696, Final residual = 0.000232278, No Iterations 2
smoothSolver:  Solving for Uz, Initial residual = 0.00251785, Final residual = 0.000146114, No Iterations 2
DICPCG:  Solving for p, Initial residual = 0.0173343, Final residual = 0.00155293, No Iterations 7
time step continuity errors : sum local = 0.00181273, global = 0.000346562, cumulative = 0.320711
smoothSolver:  Solving for omega, Initial residual = 0.00300905, Final residual = 0.000125759, No Iterations 2
smoothSolver:  Solving for k, Initial residual = 0.00234731, Final residual = 0.000125576, No Iterations 2
ExecutionTime = 31.9009 s  ClockTime = 32 s

Time = 281s

smoothSolver:  Solving for Ux, Initial residual = 0.00308087, Final residual = 0.000183485, No Iterations 2
smoothSolver:  Solving for Uy, Initial residual = 0.0037311, Final residual = 0.00022869, No Iterations 2
smoothSolver:  Solving for Uz, Initial residual = 0.00248527, Final residual = 0.00014348, No Iterations 2
DICPCG:  Solving for p, Initial residual = 0.0169688, Final residual = 0.00140134, No Iterations 8
time step continuity errors : sum local = 0.00166402, global = 0.000361004, cumulative = 0.321072
smoothSolver:  Solving for omega, Initial residual = 0.00311855, Final residual = 0.000130433, No Iterations 2
smoothSolver:  Solving for k, Initial residual = 0.00230614, Final residual = 0.000123624, No Iterations 2
ExecutionTime = 32.0068 s  ClockTime = 32 s

Time = 282s

smoothSolver:  Solving for Ux, Initial residual = 0.00308005, Final residual = 0.000183982, No Iterations 2
smoothSolver:  Solving for Uy, Initial residual = 0.00371123, Final residual = 0.000226729, No Iterations 2
smoothSolver:  Solving for Uz, Initial residual = 0.00243304, Final residual = 0.000140694, No Iterations 2
DICPCG:  Solving for p, Initial residual = 0.0162425, Final residual = 0.00150683, No Iterations 8
time step continuity errors : sum local = 0.00183058, global = 0.000454868, cumulative = 0.321526
smoothSolver:  Solving for omega, Initial residual = 0.00300725, Final residual = 0.000127239, No Iterations 2
smoothSolver:  Solving for k, Initial residual = 0.00227395, Final residual = 0.000121527, No Iterations 2
ExecutionTime = 32.115 s  ClockTime = 32 s

Time = 283s

smoothSolver:  Solving for Ux, Initial residual = 0.00307654, Final residual = 0.000184314, No Iterations 2
smoothSolver:  Solving for Uy, Initial residual = 0.00368649, Final residual = 0.000225084, No Iterations 2
smoothSolver:  Solving for Uz, Initial residual = 0.00238789, Final residual = 0.000138094, No Iterations 2
DICPCG:  Solving for p, Initial residual = 0.0155134, Final residual = 0.00149144, No Iterations 24
time step continuity errors : sum local = 0.00184484, global = 0.00018761, cumulative = 0.321714
smoothSolver:  Solving for omega, Initial residual = 0.00292998, Final residual = 0.00012412, No Iterations 2
smoothSolver:  Solving for k, Initial residual = 0.00225616, Final residual = 0.000119961, No Iterations 2
ExecutionTime = 32.2289 s  ClockTime = 32 s

Time = 284s

smoothSolver:  Solving for Ux, Initial residual = 0.00306026, Final residual = 0.00018355, No Iterations 2
smoothSolver:  Solving for Uy, Initial residual = 0.00367178, Final residual = 0.000224709, No Iterations 2
smoothSolver:  Solving for Uz, Initial residual = 0.00234635, Final residual = 0.000135008, No Iterations 2
DICPCG:  Solving for p, Initial residual = 0.014816, Final residual = 0.00130466, No Iterations 6
time step continuity errors : sum local = 0.00167219, global = 0.00032574, cumulative = 0.32204
smoothSolver:  Solving for omega, Initial residual = 0.00286532, Final residual = 0.000120543, No Iterations 2
smoothSolver:  Solving for k, Initial residual = 0.00224684, Final residual = 0.000118874, No Iterations 2
ExecutionTime = 32.3327 s  ClockTime = 33 s

Time = 285s

smoothSolver:  Solving for Ux, Initial residual = 0.00305449, Final residual = 0.000183294, No Iterations 2
smoothSolver:  Solving for Uy, Initial residual = 0.00359839, Final residual = 0.000220129, No Iterations 2
smoothSolver:  Solving for Uz, Initial residual = 0.00229941, Final residual = 0.000132346, No Iterations 2
DICPCG:  Solving for p, Initial residual = 0.0145076, Final residual = 0.00136978, No Iterations 7
time step continuity errors : sum local = 0.00177643, global = 0.000319201, cumulative = 0.322359
smoothSolver:  Solving for omega, Initial residual = 0.00283857, Final residual = 0.000119006, No Iterations 2
smoothSolver:  Solving for k, Initial residual = 0.00224137, Final residual = 0.000118076, No Iterations 2
ExecutionTime = 32.4358 s  ClockTime = 33 s

Time = 286s

smoothSolver:  Solving for Ux, Initial residual = 0.00305708, Final residual = 0.000183671, No Iterations 2
smoothSolver:  Solving for Uy, Initial residual = 0.00354197, Final residual = 0.000216437, No Iterations 2
smoothSolver:  Solving for Uz, Initial residual = 0.00225063, Final residual = 0.000129447, No Iterations 2
DICPCG:  Solving for p, Initial residual = 0.0142046, Final residual = 0.00130753, No Iterations 20
time step continuity errors : sum local = 0.00171676, global = 0.000330265, cumulative = 0.322689
smoothSolver:  Solving for omega, Initial residual = 0.0028354, Final residual = 0.000118194, No Iterations 2
smoothSolver:  Solving for k, Initial residual = 0.00229632, Final residual = 0.000119793, No Iterations 2
ExecutionTime = 32.5553 s  ClockTime = 33 s

Time = 287s

smoothSolver:  Solving for Ux, Initial residual = 0.00306884, Final residual = 0.000184655, No Iterations 2
smoothSolver:  Solving for Uy, Initial residual = 0.00351902, Final residual = 0.000214916, No Iterations 2
smoothSolver:  Solving for Uz, Initial residual = 0.00224475, Final residual = 0.000127793, No Iterations 2
DICPCG:  Solving for p, Initial residual = 0.0138225, Final residual = 0.00130951, No Iterations 7
time step continuity errors : sum local = 0.0017753, global = 0.000466348, cumulative = 0.323156
smoothSolver:  Solving for omega, Initial residual = 0.00293504, Final residual = 0.000121783, No Iterations 2
smoothSolver:  Solving for k, Initial residual = 0.00226848, Final residual = 0.000119012, No Iterations 2
ExecutionTime = 32.6635 s  ClockTime = 33 s

Time = 288s

smoothSolver:  Solving for Ux, Initial residual = 0.00306689, Final residual = 0.00018489, No Iterations 2
smoothSolver:  Solving for Uy, Initial residual = 0.0034729, Final residual = 0.00021143, No Iterations 2
smoothSolver:  Solving for Uz, Initial residual = 0.00219119, Final residual = 0.000125376, No Iterations 2
DICPCG:  Solving for p, Initial residual = 0.0136109, Final residual = 0.00135916, No Iterations 19
time step continuity errors : sum local = 0.00185433, global = 0.000406276, cumulative = 0.323562
smoothSolver:  Solving for omega, Initial residual = 0.00287782, Final residual = 0.000121325, No Iterations 2
smoothSolver:  Solving for k, Initial residual = 0.00224568, Final residual = 0.000117919, No Iterations 2
ExecutionTime = 32.7791 s  ClockTime = 33 s

Time = 289s

smoothSolver:  Solving for Ux, Initial residual = 0.0030461, Final residual = 0.000184026, No Iterations 2
smoothSolver:  Solving for Uy, Initial residual = 0.0034425, Final residual = 0.000209283, No Iterations 2
smoothSolver:  Solving for Uz, Initial residual = 0.00215144, Final residual = 0.000122911, No Iterations 2
DICPCG:  Solving for p, Initial residual = 0.0127247, Final residual = 0.0011528, No Iterations 6
time step continuity errors : sum local = 0.00162671, global = 0.000535668, cumulative = 0.324098
smoothSolver:  Solving for omega, Initial residual = 0.00282867, Final residual = 0.000119422, No Iterations 2
smoothSolver:  Solving for k, Initial residual = 0.00223907, Final residual = 0.000116957, No Iterations 2
ExecutionTime = 32.8819 s  ClockTime = 33 s

Time = 290s

smoothSolver:  Solving for Ux, Initial residual = 0.00302947, Final residual = 0.000183178, No Iterations 2
smoothSolver:  Solving for Uy, Initial residual = 0.0033747, Final residual = 0.000205189, No Iterations 2
smoothSolver:  Solving for Uz, Initial residual = 0.002115, Final residual = 0.000120538, No Iterations 2
DICPCG:  Solving for p, Initial residual = 0.0122971, Final residual = 0.00122196, No Iterations 8
time step continuity errors : sum local = 0.0017454, global = 0.00066064, cumulative = 0.324758
smoothSolver:  Solving for omega, Initial residual = 0.00280402, Final residual = 0.000118178, No Iterations 2
smoothSolver:  Solving for k, Initial residual = 0.00223865, Final residual = 0.000116467, No Iterations 2
ExecutionTime = 32.9855 s  ClockTime = 33 s

Time = 291s

smoothSolver:  Solving for Ux, Initial residual = 0.00302273, Final residual = 0.000183011, No Iterations 2
smoothSolver:  Solving for Uy, Initial residual = 0.00332335, Final residual = 0.000202154, No Iterations 2
smoothSolver:  Solving for Uz, Initial residual = 0.00206962, Final residual = 0.000118037, No Iterations 2
DICPCG:  Solving for p, Initial residual = 0.0119462, Final residual = 0.0011248, No Iterations 25
time step continuity errors : sum local = 0.00163181, global = 7.94109e-05, cumulative = 0.324838
smoothSolver:  Solving for omega, Initial residual = 0.00273792, Final residual = 0.000116651, No Iterations 2
smoothSolver:  Solving for k, Initial residual = 0.00223467, Final residual = 0.000116127, No Iterations 2
ExecutionTime = 33.1043 s  ClockTime = 33 s

Time = 292s

smoothSolver:  Solving for Ux, Initial residual = 0.0030138, Final residual = 0.000182584, No Iterations 2
smoothSolver:  Solving for Uy, Initial residual = 0.00329233, Final residual = 0.000200668, No Iterations 2
smoothSolver:  Solving for Uz, Initial residual = 0.0020727, Final residual = 0.000117784, No Iterations 2
DICPCG:  Solving for p, Initial residual = 0.0112552, Final residual = 0.00106942, No Iterations 7
time step continuity errors : sum local = 0.0016058, global = 0.000173801, cumulative = 0.325011
smoothSolver:  Solving for omega, Initial residual = 0.00268439, Final residual = 0.00011423, No Iterations 2
smoothSolver:  Solving for k, Initial residual = 0.00222956, Final residual = 0.000115555, No Iterations 2
ExecutionTime = 33.2009 s  ClockTime = 33 s

Time = 293s

smoothSolver:  Solving for Ux, Initial residual = 0.00300024, Final residual = 0.000181986, No Iterations 2
smoothSolver:  Solving for Uy, Initial residual = 0.00323007, Final residual = 0.00019694, No Iterations 2
smoothSolver:  Solving for Uz, Initial residual = 0.00203553, Final residual = 0.000115777, No Iterations 2
DICPCG:  Solving for p, Initial residual = 0.0109531, Final residual = 0.00101736, No Iterations 10
time step continuity errors : sum local = 0.00154289, global = -2.83148e-05, cumulative = 0.324983
smoothSolver:  Solving for omega, Initial residual = 0.00266211, Final residual = 0.00011256, No Iterations 2
smoothSolver:  Solving for k, Initial residual = 0.002224, Final residual = 0.000114939, No Iterations 2
ExecutionTime = 33.3026 s  ClockTime = 34 s

Time = 294s

smoothSolver:  Solving for Ux, Initial residual = 0.00298521, Final residual = 0.000181247, No Iterations 2
smoothSolver:  Solving for Uy, Initial residual = 0.00317501, Final residual = 0.000193476, No Iterations 2
smoothSolver:  Solving for Uz, Initial residual = 0.00200221, Final residual = 0.000113952, No Iterations 2
DICPCG:  Solving for p, Initial residual = 0.0105687, Final residual = 0.00101501, No Iterations 13
time step continuity errors : sum local = 0.00157185, global = -3.13915e-05, cumulative = 0.324952
smoothSolver:  Solving for omega, Initial residual = 0.00262581, Final residual = 0.000111337, No Iterations 2
smoothSolver:  Solving for k, Initial residual = 0.00221872, Final residual = 0.000114434, No Iterations 2
ExecutionTime = 33.41 s  ClockTime = 34 s

Time = 295s

smoothSolver:  Solving for Ux, Initial residual = 0.00296123, Final residual = 0.000179805, No Iterations 2
smoothSolver:  Solving for Uy, Initial residual = 0.00312001, Final residual = 0.000190122, No Iterations 2
smoothSolver:  Solving for Uz, Initial residual = 0.00197039, Final residual = 0.000112311, No Iterations 2
DICPCG:  Solving for p, Initial residual = 0.0101082, Final residual = 0.000890269, No Iterations 6
time step continuity errors : sum local = 0.0013874, global = -6.41817e-05, cumulative = 0.324887
smoothSolver:  Solving for omega, Initial residual = 0.00256232, Final residual = 0.00010822, No Iterations 2
smoothSolver:  Solving for k, Initial residual = 0.00221665, Final residual = 0.000114217, No Iterations 2
ExecutionTime = 33.5103 s  ClockTime = 34 s

Time = 296s

smoothSolver:  Solving for Ux, Initial residual = 0.00293467, Final residual = 0.00017831, No Iterations 2
smoothSolver:  Solving for Uy, Initial residual = 0.00305544, Final residual = 0.000186054, No Iterations 2
smoothSolver:  Solving for Uz, Initial residual = 0.00193232, Final residual = 0.000110311, No Iterations 2
DICPCG:  Solving for p, Initial residual = 0.00979458, Final residual = 0.000946368, No Iterations 18
time step continuity errors : sum local = 0.00147314, global = 0.00026348, cumulative = 0.325151
smoothSolver:  Solving for omega, Initial residual = 0.00250585, Final residual = 0.000106054, No Iterations 2
smoothSolver:  Solving for k, Initial residual = 0.0022152, Final residual = 0.000114068, No Iterations 2
ExecutionTime = 33.6237 s  ClockTime = 34 s

Time = 297s

smoothSolver:  Solving for Ux, Initial residual = 0.00290923, Final residual = 0.000176663, No Iterations 2
smoothSolver:  Solving for Uy, Initial residual = 0.00302165, Final residual = 0.000184112, No Iterations 2
smoothSolver:  Solving for Uz, Initial residual = 0.00191655, Final residual = 0.000109518, No Iterations 2
DICPCG:  Solving for p, Initial residual = 0.00943696, Final residual = 0.000834683, No Iterations 7
time step continuity errors : sum local = 0.00131418, global = 0.000475831, cumulative = 0.325627
smoothSolver:  Solving for omega, Initial residual = 0.00245994, Final residual = 0.000104263, No Iterations 2
smoothSolver:  Solving for k, Initial residual = 0.00221334, Final residual = 0.000113954, No Iterations 2
ExecutionTime = 33.7229 s  ClockTime = 34 s

Time = 298s

smoothSolver:  Solving for Ux, Initial residual = 0.00289093, Final residual = 0.000175869, No Iterations 2
smoothSolver:  Solving for Uy, Initial residual = 0.00296056, Final residual = 0.000180189, No Iterations 2
smoothSolver:  Solving for Uz, Initial residual = 0.00188604, Final residual = 0.000107925, No Iterations 2
DICPCG:  Solving for p, Initial residual = 0.00916367, Final residual = 0.000805141, No Iterations 23
time step continuity errors : sum local = 0.00126858, global = 4.22406e-05, cumulative = 0.325669
smoothSolver:  Solving for omega, Initial residual = 0.00246478, Final residual = 0.000103241, No Iterations 2
smoothSolver:  Solving for k, Initial residual = 0.00221957, Final residual = 0.000113963, No Iterations 2
ExecutionTime = 33.84 s  ClockTime = 34 s

Time = 299s

smoothSolver:  Solving for Ux, Initial residual = 0.00288026, Final residual = 0.000175543, No Iterations 2
smoothSolver:  Solving for Uy, Initial residual = 0.00290103, Final residual = 0.000176391, No Iterations 2
smoothSolver:  Solving for Uz, Initial residual = 0.00191316, Final residual = 0.000108588, No Iterations 2
DICPCG:  Solving for p, Initial residual = 0.00897507, Final residual = 0.00084158, No Iterations 7
time step continuity errors : sum local = 0.00136478, global = 0.000244168, cumulative = 0.325913
smoothSolver:  Solving for omega, Initial residual = 0.00251377, Final residual = 0.000105114, No Iterations 2
smoothSolver:  Solving for k, Initial residual = 0.00223782, Final residual = 0.000114068, No Iterations 2
ExecutionTime = 33.938 s  ClockTime = 34 s

Time = 300s

smoothSolver:  Solving for Ux, Initial residual = 0.0028555, Final residual = 0.000173994, No Iterations 2
smoothSolver:  Solving for Uy, Initial residual = 0.00283752, Final residual = 0.000172238, No Iterations 2
smoothSolver:  Solving for Uz, Initial residual = 0.00187701, Final residual = 0.000107346, No Iterations 2
DICPCG:  Solving for p, Initial residual = 0.0086771, Final residual = 0.000857283, No Iterations 8
time step continuity errors : sum local = 0.0013998, global = 3.9986e-05, cumulative = 0.325953
smoothSolver:  Solving for omega, Initial residual = 0.00242741, Final residual = 0.000102069, No Iterations 2
smoothSolver:  Solving for k, Initial residual = 0.00221506, Final residual = 0.000113323, No Iterations 2
ExecutionTime = 34.2496 s  ClockTime = 34 s

End

