/*---------------------------------------------------------------------------*\
  =========                 |
  \\      /  F ield         | OpenFOAM: The Open Source CFD Toolbox
   \\    /   O peration     | Website:  https://openfoam.org
    \\  /    A nd           | Version:  13
     \\/     M anipulation  |
\*---------------------------------------------------------------------------*/
Build  : 13-cde978a97c93
Exec   : foamRun
Date   : Feb 25 2026
Time   : 17:42:51
Host   : "JOO-DESKTOP"
PID    : 60263
I/O    : uncollated
Case   : /home/joo/OpenFOAM/joo-13/run/trackB_propellerIGE_v13/cases/baseCase
nProcs : 1
sigFpe : Enabling floating point exception trapping (FOAM_SIGFPE).
fileModificationChecking : Monitoring run-time modified files using timeStampMaster (fileModificationSkew 10)
allowSystemOperations : Allowing user-supplied system call operations

// * * * * * * * * * * * * * * * * * * * * * * * * * * * * * * * * * * * * * //
Create time

Create mesh for time = 0

Selecting solver incompressibleFluid
Selecting viscosity model constant
Selecting turbulence model type RAS
    Selecting RAS turbulence model kOmegaSST
No MRF models present

Selecting patchDistMethod meshWave
Creating fvModels from "constant/fvModels"

Selecting finite volume model type propellerDisk
    Name: diskSource

SIMPLE: Convergence criteria found
        p: tolerance 0.0001
        U: tolerance 1e-05
        k: tolerance 1e-05
        omega: tolerance 1e-05


SIMPLE: Operating solver in steady-state mode with 1 outer corrector
SIMPLE: Operating solver in SIMPLE mode



Starting time loop

Reading set description:
    line

Time = 1s

smoothSolver:  Solving for Ux, Initial residual = 1, Final residual = 0.00307308, No Iterations 1
smoothSolver:  Solving for Uy, Initial residual = 1, Final residual = 0.00307308, No Iterations 1
smoothSolver:  Solving for Uz, Initial residual = 1, Final residual = 0.00310761, No Iterations 1
DICPCG:  Solving for p, Initial residual = 1, Final residual = 0.0987841, No Iterations 28
time step continuity errors : sum local = 0.608268, global = -0.00735496, cumulative = -0.00735496
smoothSolver:  Solving for omega, Initial residual = 0.0528752, Final residual = 0.00515345, No Iterations 1
smoothSolver:  Solving for k, Initial residual = 1, Final residual = 0.0974934, No Iterations 1
ExecutionTime = 0.709293 s  ClockTime = 1 s

Time = 2s

smoothSolver:  Solving for Ux, Initial residual = 0.411315, Final residual = 0.00698553, No Iterations 2
smoothSolver:  Solving for Uy, Initial residual = 0.411318, Final residual = 0.00689175, No Iterations 2
smoothSolver:  Solving for Uz, Initial residual = 0.429395, Final residual = 0.00679088, No Iterations 2
DICPCG:  Solving for p, Initial residual = 0.27875, Final residual = 0.0273078, No Iterations 39
time step continuity errors : sum local = 0.814073, global = -0.0183943, cumulative = -0.0257493
smoothSolver:  Solving for omega, Initial residual = 0.0925724, Final residual = 0.00183372, No Iterations 2
smoothSolver:  Solving for k, Initial residual = 0.279467, Final residual = 0.0266996, No Iterations 1
ExecutionTime = 0.841895 s  ClockTime = 1 s

Time = 3s

smoothSolver:  Solving for Ux, Initial residual = 0.276765, Final residual = 0.00652284, No Iterations 2
smoothSolver:  Solving for Uy, Initial residual = 0.27631, Final residual = 0.00612338, No Iterations 2
smoothSolver:  Solving for Uz, Initial residual = 0.272301, Final residual = 0.00525768, No Iterations 2
DICPCG:  Solving for p, Initial residual = 0.282538, Final residual = 0.0248239, No Iterations 11
time step continuity errors : sum local = 0.501087, global = -0.0364266, cumulative = -0.0621759
smoothSolver:  Solving for omega, Initial residual = 0.0516144, Final residual = 0.00356037, No Iterations 1
smoothSolver:  Solving for k, Initial residual = 0.177817, Final residual = 0.0173663, No Iterations 1
ExecutionTime = 0.931797 s  ClockTime = 1 s

Time = 4s

smoothSolver:  Solving for Ux, Initial residual = 0.219722, Final residual = 0.00566756, No Iterations 2
smoothSolver:  Solving for Uy, Initial residual = 0.219855, Final residual = 0.00543344, No Iterations 2
smoothSolver:  Solving for Uz, Initial residual = 0.228042, Final residual = 0.00464212, No Iterations 2
DICPCG:  Solving for p, Initial residual = 0.331652, Final residual = 0.0316116, No Iterations 15
time step continuity errors : sum local = 0.557732, global = 0.219935, cumulative = 0.157759
smoothSolver:  Solving for omega, Initial residual = 0.0371211, Final residual = 0.00289243, No Iterations 1
smoothSolver:  Solving for k, Initial residual = 0.114849, Final residual = 0.00203313, No Iterations 2
ExecutionTime = 1.04774 s  ClockTime = 1 s

Time = 5s

smoothSolver:  Solving for Ux, Initial residual = 0.144212, Final residual = 0.00377437, No Iterations 2
smoothSolver:  Solving for Uy, Initial residual = 0.144368, Final residual = 0.00364497, No Iterations 2
smoothSolver:  Solving for Uz, Initial residual = 0.128056, Final residual = 0.00270669, No Iterations 2
DICPCG:  Solving for p, Initial residual = 0.537272, Final residual = 0.0501185, No Iterations 27
time step continuity errors : sum local = 0.602937, global = 0.039047, cumulative = 0.196806
smoothSolver:  Solving for omega, Initial residual = 0.0308481, Final residual = 0.00249483, No Iterations 1
smoothSolver:  Solving for k, Initial residual = 0.109671, Final residual = 0.00202557, No Iterations 2
ExecutionTime = 1.19057 s  ClockTime = 1 s

Time = 6s

smoothSolver:  Solving for Ux, Initial residual = 0.163504, Final residual = 0.00398853, No Iterations 2
smoothSolver:  Solving for Uy, Initial residual = 0.164145, Final residual = 0.00410377, No Iterations 2
smoothSolver:  Solving for Uz, Initial residual = 0.101837, Final residual = 0.0017907, No Iterations 2
DICPCG:  Solving for p, Initial residual = 0.202667, Final residual = 0.0186843, No Iterations 24
time step continuity errors : sum local = 0.51704, global = 0.0835126, cumulative = 0.280319
smoothSolver:  Solving for omega, Initial residual = 0.0236427, Final residual = 0.00170454, No Iterations 1
smoothSolver:  Solving for k, Initial residual = 0.0807967, Final residual = 0.00143319, No Iterations 2
ExecutionTime = 1.32157 s  ClockTime = 2 s

Time = 7s

smoothSolver:  Solving for Ux, Initial residual = 0.170937, Final residual = 0.00413504, No Iterations 2
smoothSolver:  Solving for Uy, Initial residual = 0.171336, Final residual = 0.00425573, No Iterations 2
smoothSolver:  Solving for Uz, Initial residual = 0.0969526, Final residual = 0.00174316, No Iterations 2
DICPCG:  Solving for p, Initial residual = 0.138631, Final residual = 0.0122591, No Iterations 13
time step continuity errors : sum local = 0.463615, global = -0.106932, cumulative = 0.173388
smoothSolver:  Solving for omega, Initial residual = 0.0200439, Final residual = 0.00150272, No Iterations 1
smoothSolver:  Solving for k, Initial residual = 0.0758325, Final residual = 0.00154947, No Iterations 2
ExecutionTime = 1.44327 s  ClockTime = 2 s

Time = 8s

smoothSolver:  Solving for Ux, Initial residual = 0.14903, Final residual = 0.00365361, No Iterations 2
smoothSolver:  Solving for Uy, Initial residual = 0.149153, Final residual = 0.00361015, No Iterations 2
smoothSolver:  Solving for Uz, Initial residual = 0.0935009, Final residual = 0.00203073, No Iterations 2
DICPCG:  Solving for p, Initial residual = 0.194276, Final residual = 0.0163321, No Iterations 24
time step continuity errors : sum local = 0.541495, global = -0.00789172, cumulative = 0.165496
smoothSolver:  Solving for omega, Initial residual = 0.0162947, Final residual = 0.00130017, No Iterations 1
smoothSolver:  Solving for k, Initial residual = 0.0639426, Final residual = 0.00140142, No Iterations 2
ExecutionTime = 1.56909 s  ClockTime = 2 s

Time = 9s

smoothSolver:  Solving for Ux, Initial residual = 0.119175, Final residual = 0.00310556, No Iterations 2
smoothSolver:  Solving for Uy, Initial residual = 0.119408, Final residual = 0.00295843, No Iterations 2
smoothSolver:  Solving for Uz, Initial residual = 0.0995023, Final residual = 0.0022044, No Iterations 2
DICPCG:  Solving for p, Initial residual = 0.392434, Final residual = 0.0354727, No Iterations 21
time step continuity errors : sum local = 0.489747, global = -0.0404271, cumulative = 0.125069
smoothSolver:  Solving for omega, Initial residual = 0.0143103, Final residual = 0.00131295, No Iterations 1
smoothSolver:  Solving for k, Initial residual = 0.0615338, Final residual = 0.00130572, No Iterations 2
ExecutionTime = 1.6931 s  ClockTime = 2 s

Time = 10s

smoothSolver:  Solving for Ux, Initial residual = 0.102123, Final residual = 0.0027003, No Iterations 2
smoothSolver:  Solving for Uy, Initial residual = 0.101391, Final residual = 0.00253042, No Iterations 2
smoothSolver:  Solving for Uz, Initial residual = 0.0947514, Final residual = 0.00193882, No Iterations 2
DICPCG:  Solving for p, Initial residual = 0.415158, Final residual = 0.0373167, No Iterations 10
time step continuity errors : sum local = 0.395894, global = 0.0184103, cumulative = 0.143479
smoothSolver:  Solving for omega, Initial residual = 0.0123478, Final residual = 0.00116327, No Iterations 1
smoothSolver:  Solving for k, Initial residual = 0.0602689, Final residual = 0.00124009, No Iterations 2
ExecutionTime = 1.80635 s  ClockTime = 2 s

Time = 11s

smoothSolver:  Solving for Ux, Initial residual = 0.0982399, Final residual = 0.00246516, No Iterations 2
smoothSolver:  Solving for Uy, Initial residual = 0.098191, Final residual = 0.00232223, No Iterations 2
smoothSolver:  Solving for Uz, Initial residual = 0.072457, Final residual = 0.00136756, No Iterations 2
DICPCG:  Solving for p, Initial residual = 0.469729, Final residual = 0.0463375, No Iterations 23
time step continuity errors : sum local = 0.376364, global = 0.0257551, cumulative = 0.169234
smoothSolver:  Solving for omega, Initial residual = 0.0125998, Final residual = 0.00120337, No Iterations 1
smoothSolver:  Solving for k, Initial residual = 0.0632553, Final residual = 0.00131082, No Iterations 2
ExecutionTime = 1.93043 s  ClockTime = 2 s

Time = 12s

smoothSolver:  Solving for Ux, Initial residual = 0.0984855, Final residual = 0.00239861, No Iterations 2
smoothSolver:  Solving for Uy, Initial residual = 0.0994315, Final residual = 0.00239947, No Iterations 2
smoothSolver:  Solving for Uz, Initial residual = 0.0565982, Final residual = 0.00537733, No Iterations 1
DICPCG:  Solving for p, Initial residual = 0.398096, Final residual = 0.0368574, No Iterations 23
time step continuity errors : sum local = 0.326423, global = 0.0138212, cumulative = 0.183055
smoothSolver:  Solving for omega, Initial residual = 0.0123622, Final residual = 0.00120304, No Iterations 1
smoothSolver:  Solving for k, Initial residual = 0.0645567, Final residual = 0.00136308, No Iterations 2
ExecutionTime = 2.04092 s  ClockTime = 2 s

Time = 13s

smoothSolver:  Solving for Ux, Initial residual = 0.0926704, Final residual = 0.00227614, No Iterations 2
smoothSolver:  Solving for Uy, Initial residual = 0.0932293, Final residual = 0.00224181, No Iterations 2
smoothSolver:  Solving for Uz, Initial residual = 0.0643288, Final residual = 0.00619918, No Iterations 1
DICPCG:  Solving for p, Initial residual = 0.250618, Final residual = 0.0246168, No Iterations 10
time step continuity errors : sum local = 0.306362, global = -0.0628639, cumulative = 0.120191
smoothSolver:  Solving for omega, Initial residual = 0.0122354, Final residual = 0.00121831, No Iterations 1
smoothSolver:  Solving for k, Initial residual = 0.0666304, Final residual = 0.00139962, No Iterations 2
ExecutionTime = 2.14918 s  ClockTime = 2 s

Time = 14s

smoothSolver:  Solving for Ux, Initial residual = 0.081815, Final residual = 0.00203728, No Iterations 2
smoothSolver:  Solving for Uy, Initial residual = 0.0822251, Final residual = 0.00196751, No Iterations 2
smoothSolver:  Solving for Uz, Initial residual = 0.0707237, Final residual = 0.00139036, No Iterations 2
DICPCG:  Solving for p, Initial residual = 0.271136, Final residual = 0.024765, No Iterations 24
time step continuity errors : sum local = 0.272565, global = -0.0488804, cumulative = 0.0713111
smoothSolver:  Solving for omega, Initial residual = 0.0117412, Final residual = 0.000196967, No Iterations 2
smoothSolver:  Solving for k, Initial residual = 0.068121, Final residual = 0.00141341, No Iterations 2
ExecutionTime = 2.27331 s  ClockTime = 3 s

Time = 15s

smoothSolver:  Solving for Ux, Initial residual = 0.074601, Final residual = 0.00192969, No Iterations 2
smoothSolver:  Solving for Uy, Initial residual = 0.075446, Final residual = 0.00182384, No Iterations 2
smoothSolver:  Solving for Uz, Initial residual = 0.0612332, Final residual = 0.00599027, No Iterations 1
DICPCG:  Solving for p, Initial residual = 0.568527, Final residual = 0.0480866, No Iterations 20
time step continuity errors : sum local = 0.22243, global = 0.00918057, cumulative = 0.0804917
smoothSolver:  Solving for omega, Initial residual = 0.0109138, Final residual = 0.000193435, No Iterations 2
smoothSolver:  Solving for k, Initial residual = 0.0689266, Final residual = 0.00144346, No Iterations 2
ExecutionTime = 2.39637 s  ClockTime = 3 s

Time = 16s

smoothSolver:  Solving for Ux, Initial residual = 0.0702208, Final residual = 0.00180302, No Iterations 2
smoothSolver:  Solving for Uy, Initial residual = 0.0708265, Final residual = 0.00171794, No Iterations 2
smoothSolver:  Solving for Uz, Initial residual = 0.0584369, Final residual = 0.00543583, No Iterations 1
DICPCG:  Solving for p, Initial residual = 0.294579, Final residual = 0.0270954, No Iterations 7
time step continuity errors : sum local = 0.219099, global = 0.0122684, cumulative = 0.09276
smoothSolver:  Solving for omega, Initial residual = 0.0102039, Final residual = 0.000189282, No Iterations 2
smoothSolver:  Solving for k, Initial residual = 0.0691821, Final residual = 0.00143215, No Iterations 2
ExecutionTime = 2.49666 s  ClockTime = 3 s

Time = 17s

smoothSolver:  Solving for Ux, Initial residual = 0.0684519, Final residual = 0.0016859, No Iterations 2
smoothSolver:  Solving for Uy, Initial residual = 0.0689249, Final residual = 0.0016263, No Iterations 2
smoothSolver:  Solving for Uz, Initial residual = 0.0495867, Final residual = 0.00468296, No Iterations 1
DICPCG:  Solving for p, Initial residual = 0.310057, Final residual = 0.0245088, No Iterations 21
time step continuity errors : sum local = 0.185558, global = 0.0280253, cumulative = 0.120785
smoothSolver:  Solving for omega, Initial residual = 0.00980829, Final residual = 0.000194425, No Iterations 2
smoothSolver:  Solving for k, Initial residual = 0.0704423, Final residual = 0.00149668, No Iterations 2
ExecutionTime = 2.61245 s  ClockTime = 3 s

Time = 18s

smoothSolver:  Solving for Ux, Initial residual = 0.0643702, Final residual = 0.00155127, No Iterations 2
smoothSolver:  Solving for Uy, Initial residual = 0.0648541, Final residual = 0.00151388, No Iterations 2
smoothSolver:  Solving for Uz, Initial residual = 0.0462437, Final residual = 0.00441135, No Iterations 1
DICPCG:  Solving for p, Initial residual = 0.475299, Final residual = 0.0450729, No Iterations 18
time step continuity errors : sum local = 0.205592, global = 0.0389417, cumulative = 0.159727
smoothSolver:  Solving for omega, Initial residual = 0.00950168, Final residual = 0.000194157, No Iterations 2
smoothSolver:  Solving for k, Initial residual = 0.0727456, Final residual = 0.00153799, No Iterations 2
ExecutionTime = 2.72445 s  ClockTime = 3 s

Time = 19s

smoothSolver:  Solving for Ux, Initial residual = 0.0589448, Final residual = 0.00141574, No Iterations 2
smoothSolver:  Solving for Uy, Initial residual = 0.0591573, Final residual = 0.0013733, No Iterations 2
smoothSolver:  Solving for Uz, Initial residual = 0.051303, Final residual = 0.00464072, No Iterations 1
DICPCG:  Solving for p, Initial residual = 0.498582, Final residual = 0.049192, No Iterations 10
time step continuity errors : sum local = 0.198663, global = -0.0267597, cumulative = 0.132967
smoothSolver:  Solving for omega, Initial residual = 0.0093873, Final residual = 0.000198644, No Iterations 2
smoothSolver:  Solving for k, Initial residual = 0.0736578, Final residual = 0.00160731, No Iterations 2
ExecutionTime = 2.81542 s  ClockTime = 3 s

Time = 20s

smoothSolver:  Solving for Ux, Initial residual = 0.0548577, Final residual = 0.00132723, No Iterations 2
smoothSolver:  Solving for Uy, Initial residual = 0.0550988, Final residual = 0.00130612, No Iterations 2
smoothSolver:  Solving for Uz, Initial residual = 0.0499904, Final residual = 0.00456831, No Iterations 1
DICPCG:  Solving for p, Initial residual = 0.480569, Final residual = 0.0457381, No Iterations 21
time step continuity errors : sum local = 0.177996, global = -0.0289864, cumulative = 0.103981
smoothSolver:  Solving for omega, Initial residual = 0.00943499, Final residual = 0.000202408, No Iterations 2
smoothSolver:  Solving for k, Initial residual = 0.0751974, Final residual = 0.00161974, No Iterations 2
ExecutionTime = 2.92512 s  ClockTime = 3 s

Time = 21s

smoothSolver:  Solving for Ux, Initial residual = 0.0526607, Final residual = 0.00127104, No Iterations 2
smoothSolver:  Solving for Uy, Initial residual = 0.0533937, Final residual = 0.00132139, No Iterations 2
smoothSolver:  Solving for Uz, Initial residual = 0.0486436, Final residual = 0.00428401, No Iterations 1
DICPCG:  Solving for p, Initial residual = 0.331382, Final residual = 0.0275121, No Iterations 21
time step continuity errors : sum local = 0.1455, global = 0.00237669, cumulative = 0.106358
smoothSolver:  Solving for omega, Initial residual = 0.00981708, Final residual = 0.00021036, No Iterations 2
smoothSolver:  Solving for k, Initial residual = 0.0748591, Final residual = 0.00162985, No Iterations 2
ExecutionTime = 3.03441 s  ClockTime = 3 s

Time = 22s

smoothSolver:  Solving for Ux, Initial residual = 0.0518511, Final residual = 0.00124767, No Iterations 2
smoothSolver:  Solving for Uy, Initial residual = 0.0519679, Final residual = 0.00127988, No Iterations 2
smoothSolver:  Solving for Uz, Initial residual = 0.0547047, Final residual = 0.00469947, No Iterations 1
DICPCG:  Solving for p, Initial residual = 0.180231, Final residual = 0.0176765, No Iterations 14
time step continuity errors : sum local = 0.169308, global = -0.00778493, cumulative = 0.0985727
smoothSolver:  Solving for omega, Initial residual = 0.010554, Final residual = 0.000216863, No Iterations 2
smoothSolver:  Solving for k, Initial residual = 0.0756623, Final residual = 0.00160185, No Iterations 2
ExecutionTime = 3.13861 s  ClockTime = 3 s

Time = 23s

smoothSolver:  Solving for Ux, Initial residual = 0.0517794, Final residual = 0.00120321, No Iterations 2
smoothSolver:  Solving for Uy, Initial residual = 0.0513348, Final residual = 0.00119481, No Iterations 2
smoothSolver:  Solving for Uz, Initial residual = 0.0547533, Final residual = 0.00467237, No Iterations 1
DICPCG:  Solving for p, Initial residual = 0.193317, Final residual = 0.0172268, No Iterations 20
time step continuity errors : sum local = 0.148776, global = 0.0289553, cumulative = 0.127528
smoothSolver:  Solving for omega, Initial residual = 0.0113351, Final residual = 0.000223408, No Iterations 2
smoothSolver:  Solving for k, Initial residual = 0.0731439, Final residual = 0.00151708, No Iterations 2
ExecutionTime = 3.24893 s  ClockTime = 4 s

Time = 24s

smoothSolver:  Solving for Ux, Initial residual = 0.0486852, Final residual = 0.00112714, No Iterations 2
smoothSolver:  Solving for Uy, Initial residual = 0.0489158, Final residual = 0.00108613, No Iterations 2
smoothSolver:  Solving for Uz, Initial residual = 0.0508783, Final residual = 0.00442823, No Iterations 1
DICPCG:  Solving for p, Initial residual = 0.203524, Final residual = 0.0203236, No Iterations 20
time step continuity errors : sum local = 0.161987, global = 0.0267361, cumulative = 0.154264
smoothSolver:  Solving for omega, Initial residual = 0.0121076, Final residual = 0.000228166, No Iterations 2
smoothSolver:  Solving for k, Initial residual = 0.0700547, Final residual = 0.0014231, No Iterations 2
ExecutionTime = 3.35611 s  ClockTime = 4 s

Time = 25s

smoothSolver:  Solving for Ux, Initial residual = 0.0463782, Final residual = 0.00107833, No Iterations 2
smoothSolver:  Solving for Uy, Initial residual = 0.0468733, Final residual = 0.00102359, No Iterations 2
smoothSolver:  Solving for Uz, Initial residual = 0.0446025, Final residual = 0.00387052, No Iterations 1
DICPCG:  Solving for p, Initial residual = 0.235875, Final residual = 0.0223477, No Iterations 10
time step continuity errors : sum local = 0.147848, global = 0.0176031, cumulative = 0.171867
smoothSolver:  Solving for omega, Initial residual = 0.0129898, Final residual = 0.000237389, No Iterations 2
smoothSolver:  Solving for k, Initial residual = 0.0675711, Final residual = 0.00133257, No Iterations 2
ExecutionTime = 3.45805 s  ClockTime = 4 s

Time = 26s

smoothSolver:  Solving for Ux, Initial residual = 0.0463171, Final residual = 0.00104813, No Iterations 2
smoothSolver:  Solving for Uy, Initial residual = 0.046693, Final residual = 0.000980135, No Iterations 2
smoothSolver:  Solving for Uz, Initial residual = 0.0408938, Final residual = 0.00356979, No Iterations 1
DICPCG:  Solving for p, Initial residual = 0.209119, Final residual = 0.0188244, No Iterations 18
time step continuity errors : sum local = 0.136581, global = -0.00662085, cumulative = 0.165246
smoothSolver:  Solving for omega, Initial residual = 0.013715, Final residual = 0.000246276, No Iterations 2
smoothSolver:  Solving for k, Initial residual = 0.0635043, Final residual = 0.00122715, No Iterations 2
ExecutionTime = 3.56989 s  ClockTime = 4 s

Time = 27s

smoothSolver:  Solving for Ux, Initial residual = 0.0448896, Final residual = 0.000989376, No Iterations 2
smoothSolver:  Solving for Uy, Initial residual = 0.0447704, Final residual = 0.000931833, No Iterations 2
smoothSolver:  Solving for Uz, Initial residual = 0.0394543, Final residual = 0.00356561, No Iterations 1
DICPCG:  Solving for p, Initial residual = 0.213198, Final residual = 0.0180681, No Iterations 8
time step continuity errors : sum local = 0.130592, global = -0.0173219, cumulative = 0.147925
smoothSolver:  Solving for omega, Initial residual = 0.0139733, Final residual = 0.000249625, No Iterations 2
smoothSolver:  Solving for k, Initial residual = 0.0602818, Final residual = 0.0011592, No Iterations 2
ExecutionTime = 3.66626 s  ClockTime = 4 s

Time = 28s

smoothSolver:  Solving for Ux, Initial residual = 0.0425209, Final residual = 0.000886208, No Iterations 2
smoothSolver:  Solving for Uy, Initial residual = 0.0427978, Final residual = 0.000839977, No Iterations 2
smoothSolver:  Solving for Uz, Initial residual = 0.0377583, Final residual = 0.0035734, No Iterations 1
DICPCG:  Solving for p, Initial residual = 0.216573, Final residual = 0.0214686, No Iterations 12
time step continuity errors : sum local = 0.147878, global = 0.00569477, cumulative = 0.153619
smoothSolver:  Solving for omega, Initial residual = 0.0137516, Final residual = 0.000239596, No Iterations 2
smoothSolver:  Solving for k, Initial residual = 0.0576441, Final residual = 0.00110383, No Iterations 2
ExecutionTime = 3.76839 s  ClockTime = 4 s

Time = 29s

smoothSolver:  Solving for Ux, Initial residual = 0.039659, Final residual = 0.000760673, No Iterations 2
smoothSolver:  Solving for Uy, Initial residual = 0.0402126, Final residual = 0.000723087, No Iterations 2
smoothSolver:  Solving for Uz, Initial residual = 0.0360348, Final residual = 0.00341866, No Iterations 1
DICPCG:  Solving for p, Initial residual = 0.202048, Final residual = 0.018708, No Iterations 20
time step continuity errors : sum local = 0.13094, global = 0.0227191, cumulative = 0.176338
smoothSolver:  Solving for omega, Initial residual = 0.0132955, Final residual = 0.000232519, No Iterations 2
smoothSolver:  Solving for k, Initial residual = 0.0558152, Final residual = 0.00107191, No Iterations 2
ExecutionTime = 3.88046 s  ClockTime = 4 s

Time = 30s

smoothSolver:  Solving for Ux, Initial residual = 0.0379936, Final residual = 0.000669719, No Iterations 2
smoothSolver:  Solving for Uy, Initial residual = 0.0388873, Final residual = 0.00386494, No Iterations 1
smoothSolver:  Solving for Uz, Initial residual = 0.0318202, Final residual = 0.00311008, No Iterations 1
DICPCG:  Solving for p, Initial residual = 0.214976, Final residual = 0.021231, No Iterations 19
time step continuity errors : sum local = 0.13254, global = 0.0206682, cumulative = 0.197007
smoothSolver:  Solving for omega, Initial residual = 0.0128284, Final residual = 0.000232667, No Iterations 2
smoothSolver:  Solving for k, Initial residual = 0.0548057, Final residual = 0.00106576, No Iterations 2
ExecutionTime = 3.99136 s  ClockTime = 4 s

Time = 31s

smoothSolver:  Solving for Ux, Initial residual = 0.0372589, Final residual = 0.00368664, No Iterations 1
smoothSolver:  Solving for Uy, Initial residual = 0.0396076, Final residual = 0.00387775, No Iterations 1
smoothSolver:  Solving for Uz, Initial residual = 0.0269959, Final residual = 0.000497919, No Iterations 2
DICPCG:  Solving for p, Initial residual = 0.242737, Final residual = 0.0242376, No Iterations 9
time step continuity errors : sum local = 0.135792, global = 0.047976, cumulative = 0.244983
smoothSolver:  Solving for omega, Initial residual = 0.0127235, Final residual = 0.000240384, No Iterations 2
smoothSolver:  Solving for k, Initial residual = 0.0542799, Final residual = 0.00104849, No Iterations 2
ExecutionTime = 4.08655 s  ClockTime = 4 s

Time = 32s

smoothSolver:  Solving for Ux, Initial residual = 0.0373072, Final residual = 0.00372967, No Iterations 1
smoothSolver:  Solving for Uy, Initial residual = 0.0388743, Final residual = 0.000668143, No Iterations 2
smoothSolver:  Solving for Uz, Initial residual = 0.0238145, Final residual = 0.00236007, No Iterations 1
DICPCG:  Solving for p, Initial residual = 0.233528, Final residual = 0.0205998, No Iterations 20
time step continuity errors : sum local = 0.110935, global = 0.0128471, cumulative = 0.25783
smoothSolver:  Solving for omega, Initial residual = 0.0129216, Final residual = 0.000248498, No Iterations 2
smoothSolver:  Solving for k, Initial residual = 0.0539125, Final residual = 0.00101421, No Iterations 2
ExecutionTime = 4.1963 s  ClockTime = 4 s

Time = 33s

smoothSolver:  Solving for Ux, Initial residual = 0.0348424, Final residual = 0.00344474, No Iterations 1
smoothSolver:  Solving for Uy, Initial residual = 0.0344072, Final residual = 0.00338962, No Iterations 1
smoothSolver:  Solving for Uz, Initial residual = 0.0223199, Final residual = 0.000395454, No Iterations 2
DICPCG:  Solving for p, Initial residual = 0.268525, Final residual = 0.0256401, No Iterations 10
time step continuity errors : sum local = 0.114598, global = 0.0288029, cumulative = 0.286633
smoothSolver:  Solving for omega, Initial residual = 0.0130235, Final residual = 0.000252522, No Iterations 2
smoothSolver:  Solving for k, Initial residual = 0.0534521, Final residual = 0.00098861, No Iterations 2
ExecutionTime = 4.29108 s  ClockTime = 5 s

Time = 34s

smoothSolver:  Solving for Ux, Initial residual = 0.0325504, Final residual = 0.00321855, No Iterations 1
smoothSolver:  Solving for Uy, Initial residual = 0.0322906, Final residual = 0.00321916, No Iterations 1
smoothSolver:  Solving for Uz, Initial residual = 0.0205917, Final residual = 0.00204844, No Iterations 1
DICPCG:  Solving for p, Initial residual = 0.253396, Final residual = 0.0248826, No Iterations 12
time step continuity errors : sum local = 0.114681, global = 0.0447663, cumulative = 0.331399
smoothSolver:  Solving for omega, Initial residual = 0.0128338, Final residual = 0.000240711, No Iterations 2
smoothSolver:  Solving for k, Initial residual = 0.0514609, Final residual = 0.00512972, No Iterations 1
ExecutionTime = 4.38999 s  ClockTime = 5 s

Time = 35s

smoothSolver:  Solving for Ux, Initial residual = 0.0290397, Final residual = 0.00286661, No Iterations 1
smoothSolver:  Solving for Uy, Initial residual = 0.0290732, Final residual = 0.000523185, No Iterations 2
smoothSolver:  Solving for Uz, Initial residual = 0.0190928, Final residual = 0.00184923, No Iterations 1
DICPCG:  Solving for p, Initial residual = 0.250911, Final residual = 0.0247674, No Iterations 20
time step continuity errors : sum local = 0.109684, global = 0.0195928, cumulative = 0.350992
smoothSolver:  Solving for omega, Initial residual = 0.0124702, Final residual = 0.000223168, No Iterations 2
smoothSolver:  Solving for k, Initial residual = 0.0501267, Final residual = 0.00500133, No Iterations 1
ExecutionTime = 4.49728 s  ClockTime = 5 s

Time = 36s

smoothSolver:  Solving for Ux, Initial residual = 0.0268002, Final residual = 0.00266646, No Iterations 1
smoothSolver:  Solving for Uy, Initial residual = 0.0269338, Final residual = 0.000486039, No Iterations 2
smoothSolver:  Solving for Uz, Initial residual = 0.0176413, Final residual = 0.00170402, No Iterations 1
DICPCG:  Solving for p, Initial residual = 0.279439, Final residual = 0.0259647, No Iterations 6
time step continuity errors : sum local = 0.0955049, global = 0.0268157, cumulative = 0.377807
smoothSolver:  Solving for omega, Initial residual = 0.011639, Final residual = 0.00113076, No Iterations 1
smoothSolver:  Solving for k, Initial residual = 0.0481389, Final residual = 0.00473886, No Iterations 1
ExecutionTime = 4.58682 s  ClockTime = 5 s

Time = 37s

smoothSolver:  Solving for Ux, Initial residual = 0.0250663, Final residual = 0.000439001, No Iterations 2
smoothSolver:  Solving for Uy, Initial residual = 0.0251388, Final residual = 0.000458289, No Iterations 2
smoothSolver:  Solving for Uz, Initial residual = 0.0163375, Final residual = 0.00156679, No Iterations 1
DICPCG:  Solving for p, Initial residual = 0.259809, Final residual = 0.0239846, No Iterations 10
time step continuity errors : sum local = 0.0905847, global = 0.010816, cumulative = 0.388623
smoothSolver:  Solving for omega, Initial residual = 0.0107855, Final residual = 0.00105034, No Iterations 1
smoothSolver:  Solving for k, Initial residual = 0.0467491, Final residual = 0.000872998, No Iterations 2
ExecutionTime = 4.68351 s  ClockTime = 5 s

Time = 38s

smoothSolver:  Solving for Ux, Initial residual = 0.0231697, Final residual = 0.00228296, No Iterations 1
smoothSolver:  Solving for Uy, Initial residual = 0.0236625, Final residual = 0.000424688, No Iterations 2
smoothSolver:  Solving for Uz, Initial residual = 0.0153727, Final residual = 0.00146927, No Iterations 1
DICPCG:  Solving for p, Initial residual = 0.251689, Final residual = 0.0240788, No Iterations 11
time step continuity errors : sum local = 0.0876955, global = -0.0117146, cumulative = 0.376909
smoothSolver:  Solving for omega, Initial residual = 0.00968296, Final residual = 0.000946471, No Iterations 1
smoothSolver:  Solving for k, Initial residual = 0.0443626, Final residual = 0.00441568, No Iterations 1
ExecutionTime = 4.78303 s  ClockTime = 5 s

Time = 39s

smoothSolver:  Solving for Ux, Initial residual = 0.0219937, Final residual = 0.00218183, No Iterations 1
smoothSolver:  Solving for Uy, Initial residual = 0.0223126, Final residual = 0.000403014, No Iterations 2
smoothSolver:  Solving for Uz, Initial residual = 0.0145357, Final residual = 0.00142795, No Iterations 1
DICPCG:  Solving for p, Initial residual = 0.226576, Final residual = 0.0224321, No Iterations 16
time step continuity errors : sum local = 0.0850115, global = -0.0135294, cumulative = 0.363379
smoothSolver:  Solving for omega, Initial residual = 0.00867763, Final residual = 0.000841188, No Iterations 1
smoothSolver:  Solving for k, Initial residual = 0.0422015, Final residual = 0.00415905, No Iterations 1
ExecutionTime = 4.88664 s  ClockTime = 5 s

Time = 40s

smoothSolver:  Solving for Ux, Initial residual = 0.0208323, Final residual = 0.00207654, No Iterations 1
smoothSolver:  Solving for Uy, Initial residual = 0.0210495, Final residual = 0.00038254, No Iterations 2
smoothSolver:  Solving for Uz, Initial residual = 0.0138099, Final residual = 0.000249019, No Iterations 2
DICPCG:  Solving for p, Initial residual = 0.176408, Final residual = 0.0161968, No Iterations 8
time step continuity errors : sum local = 0.0767175, global = -0.029546, cumulative = 0.333833
smoothSolver:  Solving for omega, Initial residual = 0.00795699, Final residual = 0.000767147, No Iterations 1
smoothSolver:  Solving for k, Initial residual = 0.0411242, Final residual = 0.00406503, No Iterations 1
ExecutionTime = 4.98251 s  ClockTime = 5 s

Time = 41s

smoothSolver:  Solving for Ux, Initial residual = 0.019457, Final residual = 0.000358683, No Iterations 2
smoothSolver:  Solving for Uy, Initial residual = 0.0198169, Final residual = 0.000360967, No Iterations 2
smoothSolver:  Solving for Uz, Initial residual = 0.0127838, Final residual = 0.000228832, No Iterations 2
DICPCG:  Solving for p, Initial residual = 0.180118, Final residual = 0.0177116, No Iterations 19
time step continuity errors : sum local = 0.0777069, global = -0.00785892, cumulative = 0.325975
smoothSolver:  Solving for omega, Initial residual = 0.00759677, Final residual = 0.000720536, No Iterations 1
smoothSolver:  Solving for k, Initial residual = 0.0395519, Final residual = 0.000709941, No Iterations 2
ExecutionTime = 5.08993 s  ClockTime = 5 s

Time = 42s

smoothSolver:  Solving for Ux, Initial residual = 0.0176938, Final residual = 0.000326977, No Iterations 2
smoothSolver:  Solving for Uy, Initial residual = 0.0186204, Final residual = 0.000349086, No Iterations 2
smoothSolver:  Solving for Uz, Initial residual = 0.0116505, Final residual = 0.000220319, No Iterations 2
DICPCG:  Solving for p, Initial residual = 0.157396, Final residual = 0.0137068, No Iterations 18
time step continuity errors : sum local = 0.0663382, global = -0.00860339, cumulative = 0.317371
smoothSolver:  Solving for omega, Initial residual = 0.00740312, Final residual = 0.000678489, No Iterations 1
smoothSolver:  Solving for k, Initial residual = 0.0377867, Final residual = 0.000677592, No Iterations 2
ExecutionTime = 5.19721 s  ClockTime = 5 s

Time = 43s

smoothSolver:  Solving for Ux, Initial residual = 0.0166624, Final residual = 0.000319298, No Iterations 2
smoothSolver:  Solving for Uy, Initial residual = 0.0175917, Final residual = 0.00033904, No Iterations 2
smoothSolver:  Solving for Uz, Initial residual = 0.0112383, Final residual = 0.000221143, No Iterations 2
DICPCG:  Solving for p, Initial residual = 0.132016, Final residual = 0.012347, No Iterations 6
time step continuity errors : sum local = 0.0703867, global = -0.00196352, cumulative = 0.315408
smoothSolver:  Solving for omega, Initial residual = 0.00736136, Final residual = 0.000647547, No Iterations 1
smoothSolver:  Solving for k, Initial residual = 0.0363139, Final residual = 0.000644307, No Iterations 2
ExecutionTime = 5.29221 s  ClockTime = 6 s

Time = 44s

smoothSolver:  Solving for Ux, Initial residual = 0.0155838, Final residual = 0.000310359, No Iterations 2
smoothSolver:  Solving for Uy, Initial residual = 0.0164508, Final residual = 0.000322058, No Iterations 2
smoothSolver:  Solving for Uz, Initial residual = 0.0107885, Final residual = 0.000213231, No Iterations 2
DICPCG:  Solving for p, Initial residual = 0.137987, Final residual = 0.0112965, No Iterations 7
time step continuity errors : sum local = 0.0604121, global = 0.0133856, cumulative = 0.328793
smoothSolver:  Solving for omega, Initial residual = 0.00737713, Final residual = 0.000625166, No Iterations 1
smoothSolver:  Solving for k, Initial residual = 0.0353408, Final residual = 0.000628833, No Iterations 2
ExecutionTime = 5.39212 s  ClockTime = 6 s

Time = 45s

smoothSolver:  Solving for Ux, Initial residual = 0.014857, Final residual = 0.00031158, No Iterations 2
smoothSolver:  Solving for Uy, Initial residual = 0.0154347, Final residual = 0.000313445, No Iterations 2
smoothSolver:  Solving for Uz, Initial residual = 0.010162, Final residual = 0.000205493, No Iterations 2
DICPCG:  Solving for p, Initial residual = 0.139134, Final residual = 0.0137084, No Iterations 8
time step continuity errors : sum local = 0.073398, global = 0.0219325, cumulative = 0.350726
smoothSolver:  Solving for omega, Initial residual = 0.00738443, Final residual = 0.00060984, No Iterations 1
smoothSolver:  Solving for k, Initial residual = 0.0344497, Final residual = 0.000628156, No Iterations 2
ExecutionTime = 5.50053 s  ClockTime = 6 s

Time = 46s

smoothSolver:  Solving for Ux, Initial residual = 0.0143332, Final residual = 0.00031363, No Iterations 2
smoothSolver:  Solving for Uy, Initial residual = 0.0146387, Final residual = 0.00031177, No Iterations 2
smoothSolver:  Solving for Uz, Initial residual = 0.0092099, Final residual = 0.000191987, No Iterations 2
DICPCG:  Solving for p, Initial residual = 0.13376, Final residual = 0.0114655, No Iterations 19
time step continuity errors : sum local = 0.0647994, global = 0.00722289, cumulative = 0.357949
smoothSolver:  Solving for omega, Initial residual = 0.00735276, Final residual = 0.000601164, No Iterations 1
smoothSolver:  Solving for k, Initial residual = 0.033673, Final residual = 0.000637917, No Iterations 2
ExecutionTime = 5.62671 s  ClockTime = 6 s

Time = 47s

smoothSolver:  Solving for Ux, Initial residual = 0.0136995, Final residual = 0.000300735, No Iterations 2
smoothSolver:  Solving for Uy, Initial residual = 0.0139647, Final residual = 0.000306673, No Iterations 2
smoothSolver:  Solving for Uz, Initial residual = 0.00819703, Final residual = 0.000174649, No Iterations 2
DICPCG:  Solving for p, Initial residual = 0.142318, Final residual = 0.0137806, No Iterations 6
time step continuity errors : sum local = 0.0698078, global = 0.0162318, cumulative = 0.374181
smoothSolver:  Solving for omega, Initial residual = 0.00722371, Final residual = 0.000586118, No Iterations 1
smoothSolver:  Solving for k, Initial residual = 0.033098, Final residual = 0.00065348, No Iterations 2
ExecutionTime = 5.723 s  ClockTime = 6 s

Time = 48s

smoothSolver:  Solving for Ux, Initial residual = 0.0128747, Final residual = 0.000289573, No Iterations 2
smoothSolver:  Solving for Uy, Initial residual = 0.0133086, Final residual = 0.000300364, No Iterations 2
smoothSolver:  Solving for Uz, Initial residual = 0.00763033, Final residual = 0.000167296, No Iterations 2
DICPCG:  Solving for p, Initial residual = 0.12405, Final residual = 0.0116918, No Iterations 7
time step continuity errors : sum local = 0.0657566, global = 0.0124005, cumulative = 0.386581
smoothSolver:  Solving for omega, Initial residual = 0.00695514, Final residual = 0.00056411, No Iterations 1
smoothSolver:  Solving for k, Initial residual = 0.0326994, Final residual = 0.000674876, No Iterations 2
ExecutionTime = 5.83144 s  ClockTime = 6 s

Time = 49s

smoothSolver:  Solving for Ux, Initial residual = 0.0119423, Final residual = 0.000283415, No Iterations 2
smoothSolver:  Solving for Uy, Initial residual = 0.0126074, Final residual = 0.000296987, No Iterations 2
smoothSolver:  Solving for Uz, Initial residual = 0.00710167, Final residual = 0.000165225, No Iterations 2
DICPCG:  Solving for p, Initial residual = 0.119572, Final residual = 0.0114122, No Iterations 9
time step continuity errors : sum local = 0.064612, global = 0.0126078, cumulative = 0.399189
smoothSolver:  Solving for omega, Initial residual = 0.00658101, Final residual = 0.000546461, No Iterations 1
smoothSolver:  Solving for k, Initial residual = 0.0320288, Final residual = 0.000692815, No Iterations 2
ExecutionTime = 5.94241 s  ClockTime = 6 s

Time = 50s

smoothSolver:  Solving for Ux, Initial residual = 0.0110409, Final residual = 0.000278783, No Iterations 2
smoothSolver:  Solving for Uy, Initial residual = 0.0118355, Final residual = 0.000293961, No Iterations 2
smoothSolver:  Solving for Uz, Initial residual = 0.00677725, Final residual = 0.000171549, No Iterations 2
DICPCG:  Solving for p, Initial residual = 0.110728, Final residual = 0.0108341, No Iterations 5
time step continuity errors : sum local = 0.0643277, global = 0.0153509, cumulative = 0.41454
smoothSolver:  Solving for omega, Initial residual = 0.00614767, Final residual = 0.000532689, No Iterations 1
smoothSolver:  Solving for k, Initial residual = 0.0311777, Final residual = 0.000693489, No Iterations 2
ExecutionTime = 6.28622 s  ClockTime = 7 s

Time = 51s

smoothSolver:  Solving for Ux, Initial residual = 0.0103763, Final residual = 0.00027147, No Iterations 2
smoothSolver:  Solving for Uy, Initial residual = 0.0110443, Final residual = 0.000283211, No Iterations 2
smoothSolver:  Solving for Uz, Initial residual = 0.00660119, Final residual = 0.000168346, No Iterations 2
DICPCG:  Solving for p, Initial residual = 0.11016, Final residual = 0.00958141, No Iterations 14
time step continuity errors : sum local = 0.0540077, global = 0.00500673, cumulative = 0.419547
smoothSolver:  Solving for omega, Initial residual = 0.00579165, Final residual = 0.000517269, No Iterations 1
smoothSolver:  Solving for k, Initial residual = 0.030246, Final residual = 0.000702722, No Iterations 2
ExecutionTime = 6.40839 s  ClockTime = 7 s

Time = 52s

smoothSolver:  Solving for Ux, Initial residual = 0.00974461, Final residual = 0.000268175, No Iterations 2
smoothSolver:  Solving for Uy, Initial residual = 0.0103013, Final residual = 0.000275571, No Iterations 2
smoothSolver:  Solving for Uz, Initial residual = 0.00617056, Final residual = 0.000158828, No Iterations 2
DICPCG:  Solving for p, Initial residual = 0.110099, Final residual = 0.00811987, No Iterations 6
time step continuity errors : sum local = 0.0446805, global = 0.00994119, cumulative = 0.429488
smoothSolver:  Solving for omega, Initial residual = 0.0055287, Final residual = 0.000504752, No Iterations 1
smoothSolver:  Solving for k, Initial residual = 0.0289969, Final residual = 0.000679854, No Iterations 2
ExecutionTime = 6.51668 s  ClockTime = 7 s

Time = 53s

smoothSolver:  Solving for Ux, Initial residual = 0.00929654, Final residual = 0.000264429, No Iterations 2
smoothSolver:  Solving for Uy, Initial residual = 0.00957814, Final residual = 0.000267756, No Iterations 2
smoothSolver:  Solving for Uz, Initial residual = 0.00580375, Final residual = 0.000144196, No Iterations 2
DICPCG:  Solving for p, Initial residual = 0.103101, Final residual = 0.00859046, No Iterations 6
time step continuity errors : sum local = 0.0486207, global = 0.00591181, cumulative = 0.4354
smoothSolver:  Solving for omega, Initial residual = 0.0052267, Final residual = 0.00048985, No Iterations 1
smoothSolver:  Solving for k, Initial residual = 0.0279092, Final residual = 0.000655952, No Iterations 2
ExecutionTime = 6.62277 s  ClockTime = 7 s

Time = 54s

smoothSolver:  Solving for Ux, Initial residual = 0.00887852, Final residual = 0.000262681, No Iterations 2
smoothSolver:  Solving for Uy, Initial residual = 0.00905179, Final residual = 0.000264661, No Iterations 2
smoothSolver:  Solving for Uz, Initial residual = 0.0054507, Final residual = 0.000134482, No Iterations 2
DICPCG:  Solving for p, Initial residual = 0.0955291, Final residual = 0.00799125, No Iterations 7
time step continuity errors : sum local = 0.046195, global = 0.00470865, cumulative = 0.440108
smoothSolver:  Solving for omega, Initial residual = 0.00483508, Final residual = 0.000464416, No Iterations 1
smoothSolver:  Solving for k, Initial residual = 0.0269866, Final residual = 0.000622145, No Iterations 2
ExecutionTime = 6.72542 s  ClockTime = 7 s

Time = 55s

smoothSolver:  Solving for Ux, Initial residual = 0.00851562, Final residual = 0.000255059, No Iterations 2
smoothSolver:  Solving for Uy, Initial residual = 0.00871486, Final residual = 0.000258402, No Iterations 2
smoothSolver:  Solving for Uz, Initial residual = 0.00510657, Final residual = 0.000129039, No Iterations 2
DICPCG:  Solving for p, Initial residual = 0.0912732, Final residual = 0.00911874, No Iterations 7
time step continuity errors : sum local = 0.0533689, global = 0.00603694, cumulative = 0.446145
smoothSolver:  Solving for omega, Initial residual = 0.00442385, Final residual = 0.000435606, No Iterations 1
smoothSolver:  Solving for k, Initial residual = 0.0261347, Final residual = 0.000580199, No Iterations 2
ExecutionTime = 6.84017 s  ClockTime = 7 s

Time = 56s

smoothSolver:  Solving for Ux, Initial residual = 0.00822808, Final residual = 0.000246308, No Iterations 2
smoothSolver:  Solving for Uy, Initial residual = 0.00852833, Final residual = 0.000254473, No Iterations 2
smoothSolver:  Solving for Uz, Initial residual = 0.00490533, Final residual = 0.000125446, No Iterations 2
DICPCG:  Solving for p, Initial residual = 0.08717, Final residual = 0.00843919, No Iterations 15
time step continuity errors : sum local = 0.0515217, global = 0.00725048, cumulative = 0.453396
smoothSolver:  Solving for omega, Initial residual = 0.00411447, Final residual = 7.05357e-05, No Iterations 2
smoothSolver:  Solving for k, Initial residual = 0.025649, Final residual = 0.000543681, No Iterations 2
ExecutionTime = 6.95598 s  ClockTime = 7 s

Time = 57s

smoothSolver:  Solving for Ux, Initial residual = 0.0079687, Final residual = 0.000236236, No Iterations 2
smoothSolver:  Solving for Uy, Initial residual = 0.00858181, Final residual = 0.000261873, No Iterations 2
smoothSolver:  Solving for Uz, Initial residual = 0.00477336, Final residual = 0.000117554, No Iterations 2
DICPCG:  Solving for p, Initial residual = 0.0882006, Final residual = 0.00804677, No Iterations 6
time step continuity errors : sum local = 0.0490048, global = 0.0111309, cumulative = 0.464526
smoothSolver:  Solving for omega, Initial residual = 0.00382272, Final residual = 6.44177e-05, No Iterations 2
smoothSolver:  Solving for k, Initial residual = 0.025117, Final residual = 0.000506001, No Iterations 2
ExecutionTime = 7.05764 s  ClockTime = 7 s

Time = 58s

smoothSolver:  Solving for Ux, Initial residual = 0.00753348, Final residual = 0.000221682, No Iterations 2
smoothSolver:  Solving for Uy, Initial residual = 0.00821416, Final residual = 0.000253705, No Iterations 2
smoothSolver:  Solving for Uz, Initial residual = 0.0046405, Final residual = 0.000112235, No Iterations 2
DICPCG:  Solving for p, Initial residual = 0.0847164, Final residual = 0.00761171, No Iterations 7
time step continuity errors : sum local = 0.0474865, global = 0.0118674, cumulative = 0.476394
smoothSolver:  Solving for omega, Initial residual = 0.00365135, Final residual = 6.13163e-05, No Iterations 2
smoothSolver:  Solving for k, Initial residual = 0.0249422, Final residual = 0.000469813, No Iterations 2
ExecutionTime = 7.15498 s  ClockTime = 7 s

Time = 59s

smoothSolver:  Solving for Ux, Initial residual = 0.00722939, Final residual = 0.000209575, No Iterations 2
smoothSolver:  Solving for Uy, Initial residual = 0.00793736, Final residual = 0.000245186, No Iterations 2
smoothSolver:  Solving for Uz, Initial residual = 0.00444318, Final residual = 0.000106114, No Iterations 2
DICPCG:  Solving for p, Initial residual = 0.0804816, Final residual = 0.00775502, No Iterations 8
time step continuity errors : sum local = 0.0487074, global = 0.0104634, cumulative = 0.486857
smoothSolver:  Solving for omega, Initial residual = 0.00355207, Final residual = 5.93526e-05, No Iterations 2
smoothSolver:  Solving for k, Initial residual = 0.0249912, Final residual = 0.000435763, No Iterations 2
ExecutionTime = 7.25567 s  ClockTime = 8 s

Time = 60s

smoothSolver:  Solving for Ux, Initial residual = 0.00705154, Final residual = 0.000202111, No Iterations 2
smoothSolver:  Solving for Uy, Initial residual = 0.00769874, Final residual = 0.000233125, No Iterations 2
smoothSolver:  Solving for Uz, Initial residual = 0.00422295, Final residual = 9.96259e-05, No Iterations 2
DICPCG:  Solving for p, Initial residual = 0.0770332, Final residual = 0.00738093, No Iterations 6
time step continuity errors : sum local = 0.0468222, global = 0.0102411, cumulative = 0.497098
smoothSolver:  Solving for omega, Initial residual = 0.00358523, Final residual = 0.000357509, No Iterations 1
smoothSolver:  Solving for k, Initial residual = 0.0247916, Final residual = 0.000407289, No Iterations 2
ExecutionTime = 7.3566 s  ClockTime = 8 s

Time = 61s

smoothSolver:  Solving for Ux, Initial residual = 0.00677364, Final residual = 0.000193811, No Iterations 2
smoothSolver:  Solving for Uy, Initial residual = 0.00740292, Final residual = 0.000221258, No Iterations 2
smoothSolver:  Solving for Uz, Initial residual = 0.00400765, Final residual = 9.14435e-05, No Iterations 2
DICPCG:  Solving for p, Initial residual = 0.0728046, Final residual = 0.00697374, No Iterations 8
time step continuity errors : sum local = 0.045051, global = 0.00614877, cumulative = 0.503247
smoothSolver:  Solving for omega, Initial residual = 0.00381008, Final residual = 6.26579e-05, No Iterations 2
smoothSolver:  Solving for k, Initial residual = 0.0253799, Final residual = 0.000387336, No Iterations 2
ExecutionTime = 7.45747 s  ClockTime = 8 s

Time = 62s

smoothSolver:  Solving for Ux, Initial residual = 0.00643462, Final residual = 0.000184498, No Iterations 2
smoothSolver:  Solving for Uy, Initial residual = 0.00709964, Final residual = 0.000208488, No Iterations 2
smoothSolver:  Solving for Uz, Initial residual = 0.00377591, Final residual = 8.33312e-05, No Iterations 2
DICPCG:  Solving for p, Initial residual = 0.0685803, Final residual = 0.00685336, No Iterations 5
time step continuity errors : sum local = 0.0457254, global = 0.00228431, cumulative = 0.505531
smoothSolver:  Solving for omega, Initial residual = 0.0039061, Final residual = 0.000384469, No Iterations 1
smoothSolver:  Solving for k, Initial residual = 0.0261473, Final residual = 0.00259981, No Iterations 1
ExecutionTime = 7.54742 s  ClockTime = 8 s

Time = 63s

smoothSolver:  Solving for Ux, Initial residual = 0.00608461, Final residual = 0.000173302, No Iterations 2
smoothSolver:  Solving for Uy, Initial residual = 0.00674785, Final residual = 0.000195039, No Iterations 2
smoothSolver:  Solving for Uz, Initial residual = 0.00354015, Final residual = 7.38236e-05, No Iterations 2
DICPCG:  Solving for p, Initial residual = 0.0639449, Final residual = 0.00630092, No Iterations 11
time step continuity errors : sum local = 0.0431818, global = -0.00195199, cumulative = 0.503579
smoothSolver:  Solving for omega, Initial residual = 0.00406498, Final residual = 0.000397329, No Iterations 1
smoothSolver:  Solving for k, Initial residual = 0.0272119, Final residual = 0.00266059, No Iterations 1
ExecutionTime = 7.64517 s  ClockTime = 8 s

Time = 64s

smoothSolver:  Solving for Ux, Initial residual = 0.00582938, Final residual = 0.000162536, No Iterations 2
smoothSolver:  Solving for Uy, Initial residual = 0.00643533, Final residual = 0.00018582, No Iterations 2
smoothSolver:  Solving for Uz, Initial residual = 0.00337486, Final residual = 6.9154e-05, No Iterations 2
DICPCG:  Solving for p, Initial residual = 0.066534, Final residual = 0.00592766, No Iterations 6
time step continuity errors : sum local = 0.0387821, global = -0.00710446, cumulative = 0.496475
smoothSolver:  Solving for omega, Initial residual = 0.00412446, Final residual = 0.000399234, No Iterations 1
smoothSolver:  Solving for k, Initial residual = 0.0290863, Final residual = 0.00277176, No Iterations 1
ExecutionTime = 7.73887 s  ClockTime = 8 s

Time = 65s

smoothSolver:  Solving for Ux, Initial residual = 0.00548927, Final residual = 0.000149583, No Iterations 2
smoothSolver:  Solving for Uy, Initial residual = 0.0060401, Final residual = 0.000172481, No Iterations 2
smoothSolver:  Solving for Uz, Initial residual = 0.0032431, Final residual = 6.27612e-05, No Iterations 2
DICPCG:  Solving for p, Initial residual = 0.0629802, Final residual = 0.00557698, No Iterations 13
time step continuity errors : sum local = 0.0371347, global = -0.0058819, cumulative = 0.490593
smoothSolver:  Solving for omega, Initial residual = 0.00416229, Final residual = 0.000392357, No Iterations 1
smoothSolver:  Solving for k, Initial residual = 0.0315174, Final residual = 0.00270893, No Iterations 1
ExecutionTime = 7.83424 s  ClockTime = 8 s

Time = 66s

smoothSolver:  Solving for Ux, Initial residual = 0.00527886, Final residual = 0.000142039, No Iterations 2
smoothSolver:  Solving for Uy, Initial residual = 0.00582759, Final residual = 0.000162082, No Iterations 2
smoothSolver:  Solving for Uz, Initial residual = 0.00316411, Final residual = 6.31261e-05, No Iterations 2
DICPCG:  Solving for p, Initial residual = 0.0601083, Final residual = 0.00526634, No Iterations 5
time step continuity errors : sum local = 0.0360776, global = -0.0108295, cumulative = 0.479764
smoothSolver:  Solving for omega, Initial residual = 0.0041879, Final residual = 0.000381186, No Iterations 1
smoothSolver:  Solving for k, Initial residual = 0.0388093, Final residual = 0.00270316, No Iterations 1
ExecutionTime = 7.92516 s  ClockTime = 8 s

Time = 67s

smoothSolver:  Solving for Ux, Initial residual = 0.0050233, Final residual = 0.00013424, No Iterations 2
smoothSolver:  Solving for Uy, Initial residual = 0.00551879, Final residual = 0.000151508, No Iterations 2
smoothSolver:  Solving for Uz, Initial residual = 0.00296779, Final residual = 6.02498e-05, No Iterations 2
DICPCG:  Solving for p, Initial residual = 0.0558481, Final residual = 0.00550296, No Iterations 6
time step continuity errors : sum local = 0.0392513, global = -0.00923378, cumulative = 0.47053
smoothSolver:  Solving for omega, Initial residual = 0.00428492, Final residual = 0.000369575, No Iterations 1
smoothSolver:  Solving for k, Initial residual = 0.0603973, Final residual = 0.00263587, No Iterations 1
ExecutionTime = 8.02055 s  ClockTime = 8 s

Time = 68s

smoothSolver:  Solving for Ux, Initial residual = 0.00487957, Final residual = 0.000126638, No Iterations 2
smoothSolver:  Solving for Uy, Initial residual = 0.00534322, Final residual = 0.000142429, No Iterations 2
smoothSolver:  Solving for Uz, Initial residual = 0.00280921, Final residual = 5.65103e-05, No Iterations 2
DICPCG:  Solving for p, Initial residual = 0.053917, Final residual = 0.00515418, No Iterations 10
time step continuity errors : sum local = 0.0365976, global = -0.00216202, cumulative = 0.468368
smoothSolver:  Solving for omega, Initial residual = 0.00414133, Final residual = 0.00036122, No Iterations 1
smoothSolver:  Solving for k, Initial residual = 0.0659518, Final residual = 0.0030021, No Iterations 1
ExecutionTime = 8.12018 s  ClockTime = 8 s

Time = 69s

smoothSolver:  Solving for Ux, Initial residual = 0.00473524, Final residual = 0.000119009, No Iterations 2
smoothSolver:  Solving for Uy, Initial residual = 0.00518741, Final residual = 0.000131506, No Iterations 2
smoothSolver:  Solving for Uz, Initial residual = 0.0027193, Final residual = 5.31285e-05, No Iterations 2
DICPCG:  Solving for p, Initial residual = 0.054083, Final residual = 0.0051605, No Iterations 5
time step continuity errors : sum local = 0.0349569, global = -0.00107094, cumulative = 0.467297
smoothSolver:  Solving for omega, Initial residual = 0.00407711, Final residual = 0.000359889, No Iterations 1
smoothSolver:  Solving for k, Initial residual = 0.067754, Final residual = 0.00349493, No Iterations 1
ExecutionTime = 8.21753 s  ClockTime = 8 s

Time = 70s

smoothSolver:  Solving for Ux, Initial residual = 0.00456396, Final residual = 0.000109089, No Iterations 2
smoothSolver:  Solving for Uy, Initial residual = 0.0049341, Final residual = 0.000120219, No Iterations 2
smoothSolver:  Solving for Uz, Initial residual = 0.00264505, Final residual = 4.98422e-05, No Iterations 2
DICPCG:  Solving for p, Initial residual = 0.0535001, Final residual = 0.00502335, No Iterations 15
time step continuity errors : sum local = 0.0326293, global = 0.000165051, cumulative = 0.467462
smoothSolver:  Solving for omega, Initial residual = 0.00408758, Final residual = 0.000365096, No Iterations 1
smoothSolver:  Solving for k, Initial residual = 0.0743918, Final residual = 0.00420548, No Iterations 1
ExecutionTime = 8.31563 s  ClockTime = 9 s

Time = 71s

smoothSolver:  Solving for Ux, Initial residual = 0.00443384, Final residual = 0.000102119, No Iterations 2
smoothSolver:  Solving for Uy, Initial residual = 0.00460671, Final residual = 0.000104101, No Iterations 2
smoothSolver:  Solving for Uz, Initial residual = 0.00263648, Final residual = 5.03982e-05, No Iterations 2
DICPCG:  Solving for p, Initial residual = 0.051633, Final residual = 0.00427954, No Iterations 6
time step continuity errors : sum local = 0.0275327, global = 0.00528763, cumulative = 0.47275
smoothSolver:  Solving for omega, Initial residual = 0.00413302, Final residual = 0.000366144, No Iterations 1
smoothSolver:  Solving for k, Initial residual = 0.0763614, Final residual = 0.00479366, No Iterations 1
ExecutionTime = 8.4056 s  ClockTime = 9 s

Time = 72s

smoothSolver:  Solving for Ux, Initial residual = 0.00428696, Final residual = 9.4032e-05, No Iterations 2
smoothSolver:  Solving for Uy, Initial residual = 0.00444522, Final residual = 9.59577e-05, No Iterations 2
smoothSolver:  Solving for Uz, Initial residual = 0.00256774, Final residual = 4.77876e-05, No Iterations 2
DICPCG:  Solving for p, Initial residual = 0.0525716, Final residual = 0.00506831, No Iterations 7
time step continuity errors : sum local = 0.0313484, global = 0.00849478, cumulative = 0.481244
smoothSolver:  Solving for omega, Initial residual = 0.00419951, Final residual = 0.000372121, No Iterations 1
smoothSolver:  Solving for k, Initial residual = 0.0611928, Final residual = 0.0052187, No Iterations 1
ExecutionTime = 8.50346 s  ClockTime = 9 s

Time = 73s

smoothSolver:  Solving for Ux, Initial residual = 0.00416714, Final residual = 8.82046e-05, No Iterations 2
smoothSolver:  Solving for Uy, Initial residual = 0.00436518, Final residual = 9.0904e-05, No Iterations 2
smoothSolver:  Solving for Uz, Initial residual = 0.00248532, Final residual = 0.000245811, No Iterations 1
DICPCG:  Solving for p, Initial residual = 0.0524024, Final residual = 0.0051539, No Iterations 17
time step continuity errors : sum local = 0.0317814, global = 0.00458859, cumulative = 0.485833
smoothSolver:  Solving for omega, Initial residual = 0.00446521, Final residual = 0.00039191, No Iterations 1
smoothSolver:  Solving for k, Initial residual = 0.0677478, Final residual = 0.00587576, No Iterations 1
ExecutionTime = 8.60905 s  ClockTime = 9 s

Time = 74s

smoothSolver:  Solving for Ux, Initial residual = 0.00406638, Final residual = 8.33811e-05, No Iterations 2
smoothSolver:  Solving for Uy, Initial residual = 0.00432838, Final residual = 9.24427e-05, No Iterations 2
smoothSolver:  Solving for Uz, Initial residual = 0.00243671, Final residual = 0.00023303, No Iterations 1
DICPCG:  Solving for p, Initial residual = 0.0555602, Final residual = 0.00513405, No Iterations 7
time step continuity errors : sum local = 0.0296678, global = 0.00838348, cumulative = 0.494216
smoothSolver:  Solving for omega, Initial residual = 0.00487038, Final residual = 0.000426673, No Iterations 1
smoothSolver:  Solving for k, Initial residual = 0.0708968, Final residual = 0.00679495, No Iterations 1
ExecutionTime = 8.70381 s  ClockTime = 9 s

Time = 75s

smoothSolver:  Solving for Ux, Initial residual = 0.00394056, Final residual = 7.95724e-05, No Iterations 2
smoothSolver:  Solving for Uy, Initial residual = 0.00415756, Final residual = 8.68302e-05, No Iterations 2
smoothSolver:  Solving for Uz, Initial residual = 0.00245658, Final residual = 0.00023326, No Iterations 1
DICPCG:  Solving for p, Initial residual = 0.0548101, Final residual = 0.005477, No Iterations 12
time step continuity errors : sum local = 0.0316173, global = 0.00518474, cumulative = 0.499401
smoothSolver:  Solving for omega, Initial residual = 0.00548393, Final residual = 0.000478392, No Iterations 1
smoothSolver:  Solving for k, Initial residual = 0.0695162, Final residual = 0.000847017, No Iterations 2
ExecutionTime = 8.80801 s  ClockTime = 9 s

Time = 76s

smoothSolver:  Solving for Ux, Initial residual = 0.00385214, Final residual = 7.87823e-05, No Iterations 2
smoothSolver:  Solving for Uy, Initial residual = 0.00398845, Final residual = 7.85675e-05, No Iterations 2
smoothSolver:  Solving for Uz, Initial residual = 0.00245944, Final residual = 0.00023053, No Iterations 1
DICPCG:  Solving for p, Initial residual = 0.0554266, Final residual = 0.00525327, No Iterations 5
time step continuity errors : sum local = 0.0291719, global = 0.00608966, cumulative = 0.505491
smoothSolver:  Solving for omega, Initial residual = 0.00662275, Final residual = 0.000563532, No Iterations 1
smoothSolver:  Solving for k, Initial residual = 0.071457, Final residual = 0.000938098, No Iterations 2
ExecutionTime = 8.91115 s  ClockTime = 9 s

Time = 77s

smoothSolver:  Solving for Ux, Initial residual = 0.00368802, Final residual = 7.51535e-05, No Iterations 2
smoothSolver:  Solving for Uy, Initial residual = 0.00378051, Final residual = 7.37712e-05, No Iterations 2
smoothSolver:  Solving for Uz, Initial residual = 0.00245758, Final residual = 0.000231428, No Iterations 1
DICPCG:  Solving for p, Initial residual = 0.0538155, Final residual = 0.00478886, No Iterations 6
time step continuity errors : sum local = 0.026665, global = 0.0058495, cumulative = 0.51134
smoothSolver:  Solving for omega, Initial residual = 0.008488, Final residual = 0.000684604, No Iterations 1
smoothSolver:  Solving for k, Initial residual = 0.0705003, Final residual = 0.00105009, No Iterations 2
ExecutionTime = 9.00376 s  ClockTime = 9 s

Time = 78s

smoothSolver:  Solving for Ux, Initial residual = 0.00359338, Final residual = 7.2643e-05, No Iterations 2
smoothSolver:  Solving for Uy, Initial residual = 0.00361782, Final residual = 6.99116e-05, No Iterations 2
smoothSolver:  Solving for Uz, Initial residual = 0.00244235, Final residual = 0.000230085, No Iterations 1
DICPCG:  Solving for p, Initial residual = 0.0528343, Final residual = 0.00518575, No Iterations 8
time step continuity errors : sum local = 0.0286948, global = 0.00700721, cumulative = 0.518348
smoothSolver:  Solving for omega, Initial residual = 0.00969713, Final residual = 0.000812484, No Iterations 1
smoothSolver:  Solving for k, Initial residual = 0.0666701, Final residual = 0.00113266, No Iterations 2
ExecutionTime = 9.10088 s  ClockTime = 9 s

Time = 79s

smoothSolver:  Solving for Ux, Initial residual = 0.00356955, Final residual = 7.29446e-05, No Iterations 2
smoothSolver:  Solving for Uy, Initial residual = 0.00353996, Final residual = 6.91389e-05, No Iterations 2
smoothSolver:  Solving for Uz, Initial residual = 0.00243005, Final residual = 0.000226891, No Iterations 1
DICPCG:  Solving for p, Initial residual = 0.0504615, Final residual = 0.00470873, No Iterations 15
time step continuity errors : sum local = 0.0264051, global = 0.005315, cumulative = 0.523663
smoothSolver:  Solving for omega, Initial residual = 0.011024, Final residual = 0.000975914, No Iterations 1
smoothSolver:  Solving for k, Initial residual = 0.0641241, Final residual = 0.00124144, No Iterations 2
ExecutionTime = 9.20254 s  ClockTime = 9 s

Time = 80s

smoothSolver:  Solving for Ux, Initial residual = 0.00364044, Final residual = 7.84758e-05, No Iterations 2
smoothSolver:  Solving for Uy, Initial residual = 0.00350321, Final residual = 7.31863e-05, No Iterations 2
smoothSolver:  Solving for Uz, Initial residual = 0.002456, Final residual = 0.000229546, No Iterations 1
DICPCG:  Solving for p, Initial residual = 0.0509002, Final residual = 0.00448528, No Iterations 5
time step continuity errors : sum local = 0.0239839, global = 0.00661878, cumulative = 0.530281
smoothSolver:  Solving for omega, Initial residual = 0.0131415, Final residual = 0.00116892, No Iterations 1
smoothSolver:  Solving for k, Initial residual = 0.0622133, Final residual = 0.00129765, No Iterations 2
ExecutionTime = 9.29791 s  ClockTime = 10 s

Time = 81s

smoothSolver:  Solving for Ux, Initial residual = 0.00350397, Final residual = 7.64269e-05, No Iterations 2
smoothSolver:  Solving for Uy, Initial residual = 0.00334877, Final residual = 7.07411e-05, No Iterations 2
smoothSolver:  Solving for Uz, Initial residual = 0.00243413, Final residual = 0.000228204, No Iterations 1
DICPCG:  Solving for p, Initial residual = 0.0483291, Final residual = 0.00464314, No Iterations 7
time step continuity errors : sum local = 0.0252376, global = 0.00608618, cumulative = 0.536367
smoothSolver:  Solving for omega, Initial residual = 0.0163649, Final residual = 0.00143713, No Iterations 1
smoothSolver:  Solving for k, Initial residual = 0.0597236, Final residual = 0.00134307, No Iterations 2
ExecutionTime = 9.39225 s  ClockTime = 10 s

Time = 82s

smoothSolver:  Solving for Ux, Initial residual = 0.0033949, Final residual = 7.47279e-05, No Iterations 2
smoothSolver:  Solving for Uy, Initial residual = 0.00319, Final residual = 6.78873e-05, No Iterations 2
smoothSolver:  Solving for Uz, Initial residual = 0.00238521, Final residual = 0.000225391, No Iterations 1
DICPCG:  Solving for p, Initial residual = 0.0476957, Final residual = 0.00418288, No Iterations 15
time step continuity errors : sum local = 0.0219371, global = 0.00203934, cumulative = 0.538407
smoothSolver:  Solving for omega, Initial residual = 0.018257, Final residual = 0.00170164, No Iterations 1
smoothSolver:  Solving for k, Initial residual = 0.0557788, Final residual = 0.00137846, No Iterations 2
ExecutionTime = 9.49535 s  ClockTime = 10 s

Time = 83s

smoothSolver:  Solving for Ux, Initial residual = 0.00325235, Final residual = 7.29479e-05, No Iterations 2
smoothSolver:  Solving for Uy, Initial residual = 0.00307661, Final residual = 6.66613e-05, No Iterations 2
smoothSolver:  Solving for Uz, Initial residual = 0.00235746, Final residual = 0.000229413, No Iterations 1
DICPCG:  Solving for p, Initial residual = 0.0464968, Final residual = 0.00411456, No Iterations 5
time step continuity errors : sum local = 0.0214283, global = 0.00188314, cumulative = 0.54029
smoothSolver:  Solving for omega, Initial residual = 0.0200142, Final residual = 0.000341045, No Iterations 2
smoothSolver:  Solving for k, Initial residual = 0.0535404, Final residual = 0.00139212, No Iterations 2
ExecutionTime = 9.60917 s  ClockTime = 10 s

Time = 84s

smoothSolver:  Solving for Ux, Initial residual = 0.00314963, Final residual = 7.33782e-05, No Iterations 2
smoothSolver:  Solving for Uy, Initial residual = 0.0029385, Final residual = 6.42233e-05, No Iterations 2
smoothSolver:  Solving for Uz, Initial residual = 0.00231602, Final residual = 0.000226449, No Iterations 1
DICPCG:  Solving for p, Initial residual = 0.044914, Final residual = 0.00420214, No Iterations 8
time step continuity errors : sum local = 0.021917, global = 0.00189157, cumulative = 0.542182
smoothSolver:  Solving for omega, Initial residual = 0.0222603, Final residual = 0.000400977, No Iterations 2
smoothSolver:  Solving for k, Initial residual = 0.0522075, Final residual = 0.00135837, No Iterations 2
ExecutionTime = 9.71062 s  ClockTime = 10 s

Time = 85s

smoothSolver:  Solving for Ux, Initial residual = 0.00306416, Final residual = 7.46833e-05, No Iterations 2
smoothSolver:  Solving for Uy, Initial residual = 0.00292514, Final residual = 6.6142e-05, No Iterations 2
smoothSolver:  Solving for Uz, Initial residual = 0.00226898, Final residual = 0.000222284, No Iterations 1
DICPCG:  Solving for p, Initial residual = 0.04331, Final residual = 0.00390738, No Iterations 9
time step continuity errors : sum local = 0.0203138, global = 0.00269143, cumulative = 0.544873
smoothSolver:  Solving for omega, Initial residual = 0.0259655, Final residual = 0.00048673, No Iterations 2
smoothSolver:  Solving for k, Initial residual = 0.05106, Final residual = 0.00134335, No Iterations 2
ExecutionTime = 9.80742 s  ClockTime = 10 s

Time = 86s

smoothSolver:  Solving for Ux, Initial residual = 0.00302917, Final residual = 7.79146e-05, No Iterations 2
smoothSolver:  Solving for Uy, Initial residual = 0.00295766, Final residual = 6.93948e-05, No Iterations 2
smoothSolver:  Solving for Uz, Initial residual = 0.0022221, Final residual = 0.00022094, No Iterations 1
DICPCG:  Solving for p, Initial residual = 0.0429277, Final residual = 0.00419951, No Iterations 5
time step continuity errors : sum local = 0.0222788, global = 0.00504099, cumulative = 0.549914
smoothSolver:  Solving for omega, Initial residual = 0.029633, Final residual = 0.000596288, No Iterations 2
smoothSolver:  Solving for k, Initial residual = 0.0498061, Final residual = 0.00132101, No Iterations 2
ExecutionTime = 9.90321 s  ClockTime = 10 s

Time = 87s

smoothSolver:  Solving for Ux, Initial residual = 0.00295636, Final residual = 7.63528e-05, No Iterations 2
smoothSolver:  Solving for Uy, Initial residual = 0.0028605, Final residual = 6.62507e-05, No Iterations 2
smoothSolver:  Solving for Uz, Initial residual = 0.00222703, Final residual = 0.000218719, No Iterations 1
DICPCG:  Solving for p, Initial residual = 0.0403853, Final residual = 0.00394982, No Iterations 15
time step continuity errors : sum local = 0.0211334, global = 0.00362768, cumulative = 0.553542
smoothSolver:  Solving for omega, Initial residual = 0.0348625, Final residual = 0.000729982, No Iterations 2
smoothSolver:  Solving for k, Initial residual = 0.049225, Final residual = 0.00131298, No Iterations 2
ExecutionTime = 10.0204 s  ClockTime = 10 s

Time = 88s

smoothSolver:  Solving for Ux, Initial residual = 0.00303665, Final residual = 7.81458e-05, No Iterations 2
smoothSolver:  Solving for Uy, Initial residual = 0.00294016, Final residual = 6.9441e-05, No Iterations 2
smoothSolver:  Solving for Uz, Initial residual = 0.0022018, Final residual = 4.00156e-05, No Iterations 2
DICPCG:  Solving for p, Initial residual = 0.0413929, Final residual = 0.00397989, No Iterations 6
time step continuity errors : sum local = 0.0202199, global = 0.00603151, cumulative = 0.559573
smoothSolver:  Solving for omega, Initial residual = 0.0401048, Final residual = 0.000872691, No Iterations 2
smoothSolver:  Solving for k, Initial residual = 0.0484208, Final residual = 0.00130965, No Iterations 2
ExecutionTime = 10.1246 s  ClockTime = 10 s

Time = 89s

smoothSolver:  Solving for Ux, Initial residual = 0.00294887, Final residual = 7.75252e-05, No Iterations 2
smoothSolver:  Solving for Uy, Initial residual = 0.0028689, Final residual = 6.88892e-05, No Iterations 2
smoothSolver:  Solving for Uz, Initial residual = 0.00210347, Final residual = 3.80997e-05, No Iterations 2
DICPCG:  Solving for p, Initial residual = 0.0392514, Final residual = 0.00386924, No Iterations 9
time step continuity errors : sum local = 0.0199544, global = 0.00545298, cumulative = 0.565026
smoothSolver:  Solving for omega, Initial residual = 0.0455169, Final residual = 0.00101667, No Iterations 2
smoothSolver:  Solving for k, Initial residual = 0.0479132, Final residual = 0.00131343, No Iterations 2
ExecutionTime = 10.235 s  ClockTime = 11 s

Time = 90s

smoothSolver:  Solving for Ux, Initial residual = 0.00286999, Final residual = 7.78487e-05, No Iterations 2
smoothSolver:  Solving for Uy, Initial residual = 0.00282796, Final residual = 6.96648e-05, No Iterations 2
smoothSolver:  Solving for Uz, Initial residual = 0.00205117, Final residual = 3.72093e-05, No Iterations 2
DICPCG:  Solving for p, Initial residual = 0.037441, Final residual = 0.00361379, No Iterations 15
time step continuity errors : sum local = 0.0186514, global = 0.00383853, cumulative = 0.568865
smoothSolver:  Solving for omega, Initial residual = 0.0506932, Final residual = 0.00113925, No Iterations 2
smoothSolver:  Solving for k, Initial residual = 0.0476595, Final residual = 0.00131686, No Iterations 2
ExecutionTime = 10.3479 s  ClockTime = 11 s

Time = 91s

smoothSolver:  Solving for Ux, Initial residual = 0.00277497, Final residual = 7.95674e-05, No Iterations 2
smoothSolver:  Solving for Uy, Initial residual = 0.00273871, Final residual = 6.82298e-05, No Iterations 2
smoothSolver:  Solving for Uz, Initial residual = 0.00206295, Final residual = 3.8364e-05, No Iterations 2
DICPCG:  Solving for p, Initial residual = 0.0361186, Final residual = 0.00322005, No Iterations 5
time step continuity errors : sum local = 0.0164794, global = 0.00401272, cumulative = 0.572877
smoothSolver:  Solving for omega, Initial residual = 0.0564393, Final residual = 0.00126107, No Iterations 2
smoothSolver:  Solving for k, Initial residual = 0.0483981, Final residual = 0.00132682, No Iterations 2
ExecutionTime = 10.4523 s  ClockTime = 11 s

Time = 92s

smoothSolver:  Solving for Ux, Initial residual = 0.00268987, Final residual = 7.74932e-05, No Iterations 2
smoothSolver:  Solving for Uy, Initial residual = 0.00266623, Final residual = 6.67434e-05, No Iterations 2
smoothSolver:  Solving for Uz, Initial residual = 0.00202459, Final residual = 3.87132e-05, No Iterations 2
DICPCG:  Solving for p, Initial residual = 0.0346319, Final residual = 0.00327927, No Iterations 10
time step continuity errors : sum local = 0.0168665, global = 0.00155714, cumulative = 0.574434
smoothSolver:  Solving for omega, Initial residual = 0.064291, Final residual = 0.00137053, No Iterations 2
smoothSolver:  Solving for k, Initial residual = 0.0505557, Final residual = 0.00136117, No Iterations 2
ExecutionTime = 10.5614 s  ClockTime = 11 s

Time = 93s

smoothSolver:  Solving for Ux, Initial residual = 0.00266147, Final residual = 7.67184e-05, No Iterations 2
smoothSolver:  Solving for Uy, Initial residual = 0.00267145, Final residual = 6.72402e-05, No Iterations 2
smoothSolver:  Solving for Uz, Initial residual = 0.00197798, Final residual = 3.92195e-05, No Iterations 2
DICPCG:  Solving for p, Initial residual = 0.0334112, Final residual = 0.00318156, No Iterations 5
time step continuity errors : sum local = 0.0162577, global = 0.00144596, cumulative = 0.57588
smoothSolver:  Solving for omega, Initial residual = 0.0702434, Final residual = 0.00141073, No Iterations 2
smoothSolver:  Solving for k, Initial residual = 0.0531139, Final residual = 0.00140402, No Iterations 2
ExecutionTime = 10.6647 s  ClockTime = 11 s

Time = 94s

smoothSolver:  Solving for Ux, Initial residual = 0.00260248, Final residual = 7.47512e-05, No Iterations 2
smoothSolver:  Solving for Uy, Initial residual = 0.00266594, Final residual = 6.85744e-05, No Iterations 2
smoothSolver:  Solving for Uz, Initial residual = 0.00194427, Final residual = 3.93215e-05, No Iterations 2
DICPCG:  Solving for p, Initial residual = 0.0318785, Final residual = 0.00279868, No Iterations 8
time step continuity errors : sum local = 0.014458, global = 0.000833569, cumulative = 0.576714
smoothSolver:  Solving for omega, Initial residual = 0.0693272, Final residual = 0.00130908, No Iterations 2
smoothSolver:  Solving for k, Initial residual = 0.0560668, Final residual = 0.00143294, No Iterations 2
ExecutionTime = 10.7714 s  ClockTime = 11 s

Time = 95s

smoothSolver:  Solving for Ux, Initial residual = 0.00258193, Final residual = 7.43385e-05, No Iterations 2
smoothSolver:  Solving for Uy, Initial residual = 0.00272409, Final residual = 7.24257e-05, No Iterations 2
smoothSolver:  Solving for Uz, Initial residual = 0.00192444, Final residual = 3.95108e-05, No Iterations 2
DICPCG:  Solving for p, Initial residual = 0.0311171, Final residual = 0.00308225, No Iterations 6
time step continuity errors : sum local = 0.0157346, global = 0.00166128, cumulative = 0.578375
smoothSolver:  Solving for omega, Initial residual = 0.0637472, Final residual = 0.00113035, No Iterations 2
smoothSolver:  Solving for k, Initial residual = 0.0584689, Final residual = 0.00141751, No Iterations 2
ExecutionTime = 10.8755 s  ClockTime = 11 s

Time = 96s

smoothSolver:  Solving for Ux, Initial residual = 0.00255888, Final residual = 7.34378e-05, No Iterations 2
smoothSolver:  Solving for Uy, Initial residual = 0.00271984, Final residual = 7.38456e-05, No Iterations 2
smoothSolver:  Solving for Uz, Initial residual = 0.00189495, Final residual = 3.95205e-05, No Iterations 2
DICPCG:  Solving for p, Initial residual = 0.0295769, Final residual = 0.0029145, No Iterations 7
time step continuity errors : sum local = 0.0149905, global = 0.00280227, cumulative = 0.581178
smoothSolver:  Solving for omega, Initial residual = 0.0564862, Final residual = 0.000921612, No Iterations 2
smoothSolver:  Solving for k, Initial residual = 0.059735, Final residual = 0.00135554, No Iterations 2
ExecutionTime = 10.9866 s  ClockTime = 11 s

Time = 97s

smoothSolver:  Solving for Ux, Initial residual = 0.00253475, Final residual = 7.32515e-05, No Iterations 2
smoothSolver:  Solving for Uy, Initial residual = 0.00271169, Final residual = 7.47678e-05, No Iterations 2
smoothSolver:  Solving for Uz, Initial residual = 0.00185902, Final residual = 3.94381e-05, No Iterations 2
DICPCG:  Solving for p, Initial residual = 0.0275932, Final residual = 0.00244187, No Iterations 19
time step continuity errors : sum local = 0.0130549, global = 0.000963727, cumulative = 0.582141
smoothSolver:  Solving for omega, Initial residual = 0.047489, Final residual = 0.00471683, No Iterations 1
smoothSolver:  Solving for k, Initial residual = 0.0590838, Final residual = 0.00126383, No Iterations 2
ExecutionTime = 11.1018 s  ClockTime = 11 s

Time = 98s

smoothSolver:  Solving for Ux, Initial residual = 0.00254142, Final residual = 7.57113e-05, No Iterations 2
smoothSolver:  Solving for Uy, Initial residual = 0.0027475, Final residual = 7.89514e-05, No Iterations 2
smoothSolver:  Solving for Uz, Initial residual = 0.00187119, Final residual = 4.1712e-05, No Iterations 2
DICPCG:  Solving for p, Initial residual = 0.0294309, Final residual = 0.00292564, No Iterations 5
time step continuity errors : sum local = 0.0139811, global = 0.00385789, cumulative = 0.585999
smoothSolver:  Solving for omega, Initial residual = 0.0399543, Final residual = 0.000642317, No Iterations 2
smoothSolver:  Solving for k, Initial residual = 0.0566552, Final residual = 0.00114799, No Iterations 2
ExecutionTime = 11.2298 s  ClockTime = 12 s

Time = 99s

smoothSolver:  Solving for Ux, Initial residual = 0.00250014, Final residual = 7.49111e-05, No Iterations 2
smoothSolver:  Solving for Uy, Initial residual = 0.00269188, Final residual = 7.81689e-05, No Iterations 2
smoothSolver:  Solving for Uz, Initial residual = 0.00182908, Final residual = 4.07723e-05, No Iterations 2
DICPCG:  Solving for p, Initial residual = 0.0295631, Final residual = 0.00271159, No Iterations 6
time step continuity errors : sum local = 0.0129177, global = 0.00345902, cumulative = 0.589458
smoothSolver:  Solving for omega, Initial residual = 0.0307145, Final residual = 0.000517537, No Iterations 2
smoothSolver:  Solving for k, Initial residual = 0.051993, Final residual = 0.00101629, No Iterations 2
ExecutionTime = 11.3364 s  ClockTime = 12 s

Time = 100s

smoothSolver:  Solving for Ux, Initial residual = 0.00247715, Final residual = 7.49978e-05, No Iterations 2
smoothSolver:  Solving for Uy, Initial residual = 0.00266422, Final residual = 7.8085e-05, No Iterations 2
smoothSolver:  Solving for Uz, Initial residual = 0.00178561, Final residual = 3.97659e-05, No Iterations 2
DICPCG:  Solving for p, Initial residual = 0.0274685, Final residual = 0.00273407, No Iterations 13
time step continuity errors : sum local = 0.012825, global = 0.00316643, cumulative = 0.592625
smoothSolver:  Solving for omega, Initial residual = 0.0243612, Final residual = 0.000437714, No Iterations 2
[...]

Time = 276s

smoothSolver:  Solving for Ux, Initial residual = 0.0014925, Final residual = 5.17152e-05, No Iterations 2
smoothSolver:  Solving for Uy, Initial residual = 0.00129124, Final residual = 4.64791e-05, No Iterations 2
smoothSolver:  Solving for Uz, Initial residual = 0.000753413, Final residual = 1.58171e-05, No Iterations 2
DICPCG:  Solving for p, Initial residual = 0.00309623, Final residual = 0.00028003, No Iterations 9
time step continuity errors : sum local = 0.00189254, global = 0.000268693, cumulative = 0.667231
smoothSolver:  Solving for omega, Initial residual = 0.0014798, Final residual = 3.47457e-05, No Iterations 2
smoothSolver:  Solving for k, Initial residual = 0.00889839, Final residual = 0.000351127, No Iterations 2
ExecutionTime = 30.5988 s  ClockTime = 31 s

Time = 277s

smoothSolver:  Solving for Ux, Initial residual = 0.00147632, Final residual = 5.09513e-05, No Iterations 2
smoothSolver:  Solving for Uy, Initial residual = 0.00128795, Final residual = 4.65835e-05, No Iterations 2
smoothSolver:  Solving for Uz, Initial residual = 0.000745577, Final residual = 1.55066e-05, No Iterations 2
DICPCG:  Solving for p, Initial residual = 0.00309748, Final residual = 0.000262251, No Iterations 9
time step continuity errors : sum local = 0.00176123, global = -3.0219e-05, cumulative = 0.667201
smoothSolver:  Solving for omega, Initial residual = 0.00147637, Final residual = 3.45494e-05, No Iterations 2
smoothSolver:  Solving for k, Initial residual = 0.00897598, Final residual = 0.000353508, No Iterations 2
ExecutionTime = 30.6969 s  ClockTime = 31 s

Time = 278s

smoothSolver:  Solving for Ux, Initial residual = 0.00146032, Final residual = 5.02918e-05, No Iterations 2
smoothSolver:  Solving for Uy, Initial residual = 0.00128504, Final residual = 4.66654e-05, No Iterations 2
smoothSolver:  Solving for Uz, Initial residual = 0.000739072, Final residual = 1.52395e-05, No Iterations 2
DICPCG:  Solving for p, Initial residual = 0.00306019, Final residual = 0.000259153, No Iterations 9
time step continuity errors : sum local = 0.00179955, global = -0.000380244, cumulative = 0.666821
smoothSolver:  Solving for omega, Initial residual = 0.00147395, Final residual = 3.43821e-05, No Iterations 2
smoothSolver:  Solving for k, Initial residual = 0.00904815, Final residual = 0.000355411, No Iterations 2
ExecutionTime = 30.804 s  ClockTime = 31 s

Time = 279s

smoothSolver:  Solving for Ux, Initial residual = 0.00144756, Final residual = 4.98049e-05, No Iterations 2
smoothSolver:  Solving for Uy, Initial residual = 0.00128369, Final residual = 4.67184e-05, No Iterations 2
smoothSolver:  Solving for Uz, Initial residual = 0.000732906, Final residual = 1.50114e-05, No Iterations 2
DICPCG:  Solving for p, Initial residual = 0.00310062, Final residual = 0.000305401, No Iterations 9
time step continuity errors : sum local = 0.00206016, global = -0.000730779, cumulative = 0.66609
smoothSolver:  Solving for omega, Initial residual = 0.00147231, Final residual = 3.42401e-05, No Iterations 2
smoothSolver:  Solving for k, Initial residual = 0.00910995, Final residual = 0.000356871, No Iterations 2
ExecutionTime = 30.9072 s  ClockTime = 31 s

Time = 280s

smoothSolver:  Solving for Ux, Initial residual = 0.00143669, Final residual = 4.94654e-05, No Iterations 2
smoothSolver:  Solving for Uy, Initial residual = 0.00128065, Final residual = 4.66907e-05, No Iterations 2
smoothSolver:  Solving for Uz, Initial residual = 0.000726703, Final residual = 1.48404e-05, No Iterations 2
DICPCG:  Solving for p, Initial residual = 0.00305707, Final residual = 0.000288731, No Iterations 17
time step continuity errors : sum local = 0.00196526, global = -0.000306001, cumulative = 0.665784
smoothSolver:  Solving for omega, Initial residual = 0.00146994, Final residual = 3.41337e-05, No Iterations 2
smoothSolver:  Solving for k, Initial residual = 0.00916283, Final residual = 0.000357827, No Iterations 2
ExecutionTime = 31.0177 s  ClockTime = 31 s

Time = 281s

smoothSolver:  Solving for Ux, Initial residual = 0.00142779, Final residual = 4.92194e-05, No Iterations 2
smoothSolver:  Solving for Uy, Initial residual = 0.00127528, Final residual = 4.64975e-05, No Iterations 2
smoothSolver:  Solving for Uz, Initial residual = 0.000727138, Final residual = 1.50454e-05, No Iterations 2
DICPCG:  Solving for p, Initial residual = 0.00297232, Final residual = 0.000254241, No Iterations 8
time step continuity errors : sum local = 0.00177076, global = -0.00046034, cumulative = 0.665323
smoothSolver:  Solving for omega, Initial residual = 0.00146444, Final residual = 3.40284e-05, No Iterations 2
smoothSolver:  Solving for k, Initial residual = 0.00920512, Final residual = 0.0003583, No Iterations 2
ExecutionTime = 31.1222 s  ClockTime = 31 s

Time = 282s

smoothSolver:  Solving for Ux, Initial residual = 0.00140948, Final residual = 4.86026e-05, No Iterations 2
smoothSolver:  Solving for Uy, Initial residual = 0.00127065, Final residual = 4.63402e-05, No Iterations 2
smoothSolver:  Solving for Uz, Initial residual = 0.000720452, Final residual = 1.47883e-05, No Iterations 2
DICPCG:  Solving for p, Initial residual = 0.00270628, Final residual = 0.000246374, No Iterations 8
time step continuity errors : sum local = 0.00197025, global = -8.3838e-05, cumulative = 0.66524
smoothSolver:  Solving for omega, Initial residual = 0.00146168, Final residual = 3.39367e-05, No Iterations 2
smoothSolver:  Solving for k, Initial residual = 0.00923837, Final residual = 0.000358192, No Iterations 2
ExecutionTime = 31.225 s  ClockTime = 32 s

Time = 283s

smoothSolver:  Solving for Ux, Initial residual = 0.00139474, Final residual = 4.81116e-05, No Iterations 2
smoothSolver:  Solving for Uy, Initial residual = 0.00126457, Final residual = 4.60351e-05, No Iterations 2
smoothSolver:  Solving for Uz, Initial residual = 0.000713853, Final residual = 7.09375e-05, No Iterations 1
DICPCG:  Solving for p, Initial residual = 0.00293614, Final residual = 0.000241636, No Iterations 9
time step continuity errors : sum local = 0.0017223, global = 5.5991e-05, cumulative = 0.665296
smoothSolver:  Solving for omega, Initial residual = 0.00145368, Final residual = 3.37985e-05, No Iterations 2
smoothSolver:  Solving for k, Initial residual = 0.00926059, Final residual = 0.000357565, No Iterations 2
ExecutionTime = 31.3225 s  ClockTime = 32 s

Time = 284s

smoothSolver:  Solving for Ux, Initial residual = 0.00137317, Final residual = 4.72778e-05, No Iterations 2
smoothSolver:  Solving for Uy, Initial residual = 0.00124705, Final residual = 4.52315e-05, No Iterations 2
smoothSolver:  Solving for Uz, Initial residual = 0.000722022, Final residual = 1.52155e-05, No Iterations 2
DICPCG:  Solving for p, Initial residual = 0.00291069, Final residual = 0.000253502, No Iterations 9
time step continuity errors : sum local = 0.00186474, global = 8.877e-05, cumulative = 0.665384
smoothSolver:  Solving for omega, Initial residual = 0.00144666, Final residual = 3.36446e-05, No Iterations 2
smoothSolver:  Solving for k, Initial residual = 0.0092712, Final residual = 0.00035625, No Iterations 2
ExecutionTime = 31.4267 s  ClockTime = 32 s

Time = 285s

smoothSolver:  Solving for Ux, Initial residual = 0.00135972, Final residual = 4.67439e-05, No Iterations 2
smoothSolver:  Solving for Uy, Initial residual = 0.00123452, Final residual = 4.47338e-05, No Iterations 2
smoothSolver:  Solving for Uz, Initial residual = 0.000715666, Final residual = 1.50492e-05, No Iterations 2
DICPCG:  Solving for p, Initial residual = 0.00294002, Final residual = 0.00026827, No Iterations 9
time step continuity errors : sum local = 0.0019996, global = 8.62588e-06, cumulative = 0.665393
smoothSolver:  Solving for omega, Initial residual = 0.00143414, Final residual = 3.34127e-05, No Iterations 2
smoothSolver:  Solving for k, Initial residual = 0.00927225, Final residual = 0.00035434, No Iterations 2
ExecutionTime = 31.5391 s  ClockTime = 32 s

Time = 286s

smoothSolver:  Solving for Ux, Initial residual = 0.00134942, Final residual = 4.6371e-05, No Iterations 2
smoothSolver:  Solving for Uy, Initial residual = 0.00122522, Final residual = 4.44172e-05, No Iterations 2
smoothSolver:  Solving for Uz, Initial residual = 0.000703291, Final residual = 7.00639e-05, No Iterations 1
DICPCG:  Solving for p, Initial residual = 0.00267202, Final residual = 0.00026046, No Iterations 13
time step continuity errors : sum local = 0.00212314, global = -0.000210019, cumulative = 0.665183
smoothSolver:  Solving for omega, Initial residual = 0.00141917, Final residual = 3.31544e-05, No Iterations 2
smoothSolver:  Solving for k, Initial residual = 0.00925995, Final residual = 0.000351853, No Iterations 2
ExecutionTime = 31.6678 s  ClockTime = 32 s

Time = 287s

smoothSolver:  Solving for Ux, Initial residual = 0.00132825, Final residual = 4.55829e-05, No Iterations 2
smoothSolver:  Solving for Uy, Initial residual = 0.00120625, Final residual = 4.36152e-05, No Iterations 2
smoothSolver:  Solving for Uz, Initial residual = 0.000710569, Final residual = 1.50291e-05, No Iterations 2
DICPCG:  Solving for p, Initial residual = 0.00284543, Final residual = 0.000278584, No Iterations 8
time step continuity errors : sum local = 0.00213025, global = -0.000403227, cumulative = 0.66478
smoothSolver:  Solving for omega, Initial residual = 0.00140289, Final residual = 3.28544e-05, No Iterations 2
smoothSolver:  Solving for k, Initial residual = 0.00923309, Final residual = 0.000348638, No Iterations 2
ExecutionTime = 31.7851 s  ClockTime = 32 s

Time = 288s

smoothSolver:  Solving for Ux, Initial residual = 0.00130974, Final residual = 4.49439e-05, No Iterations 2
smoothSolver:  Solving for Uy, Initial residual = 0.00119205, Final residual = 4.31091e-05, No Iterations 2
smoothSolver:  Solving for Uz, Initial residual = 0.000701048, Final residual = 1.46229e-05, No Iterations 2
DICPCG:  Solving for p, Initial residual = 0.00277644, Final residual = 0.000258181, No Iterations 9
time step continuity errors : sum local = 0.00200989, global = -0.00055178, cumulative = 0.664228
smoothSolver:  Solving for omega, Initial residual = 0.00138199, Final residual = 3.2471e-05, No Iterations 2
smoothSolver:  Solving for k, Initial residual = 0.00919294, Final residual = 0.000344704, No Iterations 2
ExecutionTime = 31.9026 s  ClockTime = 32 s

Time = 289s

smoothSolver:  Solving for Ux, Initial residual = 0.00129774, Final residual = 4.46e-05, No Iterations 2
smoothSolver:  Solving for Uy, Initial residual = 0.00117983, Final residual = 4.25986e-05, No Iterations 2
smoothSolver:  Solving for Uz, Initial residual = 0.000688221, Final residual = 6.77783e-05, No Iterations 1
DICPCG:  Solving for p, Initial residual = 0.00263082, Final residual = 0.000254069, No Iterations 15
time step continuity errors : sum local = 0.00202644, global = -0.000212452, cumulative = 0.664015
smoothSolver:  Solving for omega, Initial residual = 0.00135743, Final residual = 3.20361e-05, No Iterations 2
smoothSolver:  Solving for k, Initial residual = 0.00914175, Final residual = 0.00034019, No Iterations 2
ExecutionTime = 32.0151 s  ClockTime = 32 s

Time = 290s

smoothSolver:  Solving for Ux, Initial residual = 0.00127229, Final residual = 4.37039e-05, No Iterations 2
smoothSolver:  Solving for Uy, Initial residual = 0.00115521, Final residual = 4.1552e-05, No Iterations 2
smoothSolver:  Solving for Uz, Initial residual = 0.00069872, Final residual = 1.47118e-05, No Iterations 2
DICPCG:  Solving for p, Initial residual = 0.00256353, Final residual = 0.000227107, No Iterations 8
time step continuity errors : sum local = 0.00185247, global = -0.000368937, cumulative = 0.663647
smoothSolver:  Solving for omega, Initial residual = 0.00133537, Final residual = 3.16572e-05, No Iterations 2
smoothSolver:  Solving for k, Initial residual = 0.00907712, Final residual = 0.000334992, No Iterations 2
ExecutionTime = 32.1238 s  ClockTime = 32 s

Time = 291s

smoothSolver:  Solving for Ux, Initial residual = 0.00125321, Final residual = 4.30189e-05, No Iterations 2
smoothSolver:  Solving for Uy, Initial residual = 0.00113733, Final residual = 4.09137e-05, No Iterations 2
smoothSolver:  Solving for Uz, Initial residual = 0.000690189, Final residual = 6.87155e-05, No Iterations 1
DICPCG:  Solving for p, Initial residual = 0.0027196, Final residual = 0.000256879, No Iterations 8
time step continuity errors : sum local = 0.00191086, global = -0.000222792, cumulative = 0.663424
smoothSolver:  Solving for omega, Initial residual = 0.00131181, Final residual = 3.13214e-05, No Iterations 2
smoothSolver:  Solving for k, Initial residual = 0.00900284, Final residual = 0.000329304, No Iterations 2
ExecutionTime = 32.2287 s  ClockTime = 33 s

Time = 292s

smoothSolver:  Solving for Ux, Initial residual = 0.00122802, Final residual = 4.21063e-05, No Iterations 2
smoothSolver:  Solving for Uy, Initial residual = 0.00111488, Final residual = 4.00877e-05, No Iterations 2
smoothSolver:  Solving for Uz, Initial residual = 0.000691374, Final residual = 1.4481e-05, No Iterations 2
DICPCG:  Solving for p, Initial residual = 0.00264342, Final residual = 0.000231355, No Iterations 9
time step continuity errors : sum local = 0.00177234, global = -0.000165296, cumulative = 0.663258
smoothSolver:  Solving for omega, Initial residual = 0.00128806, Final residual = 3.09951e-05, No Iterations 2
smoothSolver:  Solving for k, Initial residual = 0.00891351, Final residual = 0.000322981, No Iterations 2
ExecutionTime = 32.3377 s  ClockTime = 33 s

Time = 293s

smoothSolver:  Solving for Ux, Initial residual = 0.00121198, Final residual = 4.15562e-05, No Iterations 2
smoothSolver:  Solving for Uy, Initial residual = 0.00109656, Final residual = 3.94768e-05, No Iterations 2
smoothSolver:  Solving for Uz, Initial residual = 0.000678216, Final residual = 6.64537e-05, No Iterations 1
DICPCG:  Solving for p, Initial residual = 0.00243366, Final residual = 0.000240705, No Iterations 12
time step continuity errors : sum local = 0.00196699, global = -0.000136076, cumulative = 0.663122
smoothSolver:  Solving for omega, Initial residual = 0.00125984, Final residual = 3.06209e-05, No Iterations 2
smoothSolver:  Solving for k, Initial residual = 0.00881275, Final residual = 0.000316097, No Iterations 2
ExecutionTime = 32.4476 s  ClockTime = 33 s

Time = 294s

smoothSolver:  Solving for Ux, Initial residual = 0.00118783, Final residual = 4.06807e-05, No Iterations 2
smoothSolver:  Solving for Uy, Initial residual = 0.00107323, Final residual = 3.8703e-05, No Iterations 2
smoothSolver:  Solving for Uz, Initial residual = 0.00068038, Final residual = 6.72449e-05, No Iterations 1
DICPCG:  Solving for p, Initial residual = 0.00258977, Final residual = 0.000226767, No Iterations 15
time step continuity errors : sum local = 0.00168165, global = -5.51173e-05, cumulative = 0.663067
smoothSolver:  Solving for omega, Initial residual = 0.0012282, Final residual = 3.01439e-05, No Iterations 2
smoothSolver:  Solving for k, Initial residual = 0.00870037, Final residual = 0.000308693, No Iterations 2
ExecutionTime = 32.5597 s  ClockTime = 33 s

Time = 295s

smoothSolver:  Solving for Ux, Initial residual = 0.00115969, Final residual = 3.96157e-05, No Iterations 2
smoothSolver:  Solving for Uy, Initial residual = 0.00104774, Final residual = 3.79393e-05, No Iterations 2
smoothSolver:  Solving for Uz, Initial residual = 0.000687369, Final residual = 1.45364e-05, No Iterations 2
DICPCG:  Solving for p, Initial residual = 0.00263609, Final residual = 0.00024247, No Iterations 8
time step continuity errors : sum local = 0.00175462, global = -0.000118337, cumulative = 0.662949
smoothSolver:  Solving for omega, Initial residual = 0.00119851, Final residual = 2.9633e-05, No Iterations 2
smoothSolver:  Solving for k, Initial residual = 0.00857338, Final residual = 0.000300681, No Iterations 2
ExecutionTime = 32.6686 s  ClockTime = 33 s

Time = 296s

smoothSolver:  Solving for Ux, Initial residual = 0.00114277, Final residual = 3.90815e-05, No Iterations 2
smoothSolver:  Solving for Uy, Initial residual = 0.00102918, Final residual = 3.7381e-05, No Iterations 2
smoothSolver:  Solving for Uz, Initial residual = 0.000669755, Final residual = 6.51579e-05, No Iterations 1
DICPCG:  Solving for p, Initial residual = 0.00252335, Final residual = 0.00020659, No Iterations 9
time step continuity errors : sum local = 0.001503, global = -1.10555e-05, cumulative = 0.662938
smoothSolver:  Solving for omega, Initial residual = 0.00116937, Final residual = 2.90502e-05, No Iterations 2
smoothSolver:  Solving for k, Initial residual = 0.00843713, Final residual = 0.000292352, No Iterations 2
ExecutionTime = 32.7781 s  ClockTime = 33 s

Time = 297s

smoothSolver:  Solving for Ux, Initial residual = 0.00112354, Final residual = 3.85281e-05, No Iterations 2
smoothSolver:  Solving for Uy, Initial residual = 0.00101091, Final residual = 3.68362e-05, No Iterations 2
smoothSolver:  Solving for Uz, Initial residual = 0.000662845, Final residual = 6.40138e-05, No Iterations 1
DICPCG:  Solving for p, Initial residual = 0.00246116, Final residual = 0.000241052, No Iterations 10
time step continuity errors : sum local = 0.00177616, global = 5.33924e-05, cumulative = 0.662991
smoothSolver:  Solving for omega, Initial residual = 0.00114185, Final residual = 2.84476e-05, No Iterations 2
smoothSolver:  Solving for k, Initial residual = 0.00829126, Final residual = 0.000283615, No Iterations 2
ExecutionTime = 32.8847 s  ClockTime = 33 s

Time = 298s

smoothSolver:  Solving for Ux, Initial residual = 0.00110204, Final residual = 3.78245e-05, No Iterations 2
smoothSolver:  Solving for Uy, Initial residual = 0.000992544, Final residual = 3.62311e-05, No Iterations 2
smoothSolver:  Solving for Uz, Initial residual = 0.000663674, Final residual = 6.48061e-05, No Iterations 1
DICPCG:  Solving for p, Initial residual = 0.00243027, Final residual = 0.000230907, No Iterations 16
time step continuity errors : sum local = 0.00173367, global = -4.52897e-05, cumulative = 0.662946
smoothSolver:  Solving for omega, Initial residual = 0.00111519, Final residual = 2.77972e-05, No Iterations 2
smoothSolver:  Solving for k, Initial residual = 0.0081361, Final residual = 0.000274598, No Iterations 2
ExecutionTime = 32.9921 s  ClockTime = 33 s

Time = 299s

smoothSolver:  Solving for Ux, Initial residual = 0.00107802, Final residual = 3.68677e-05, No Iterations 2
smoothSolver:  Solving for Uy, Initial residual = 0.000971256, Final residual = 3.55614e-05, No Iterations 2
smoothSolver:  Solving for Uz, Initial residual = 0.000671742, Final residual = 6.68794e-05, No Iterations 1
DICPCG:  Solving for p, Initial residual = 0.00255688, Final residual = 0.000238458, No Iterations 9
time step continuity errors : sum local = 0.00167035, global = 3.40998e-05, cumulative = 0.66298
smoothSolver:  Solving for omega, Initial residual = 0.00108531, Final residual = 2.70901e-05, No Iterations 2
smoothSolver:  Solving for k, Initial residual = 0.00797135, Final residual = 0.000265408, No Iterations 2
ExecutionTime = 33.0892 s  ClockTime = 33 s

Time = 300s

smoothSolver:  Solving for Ux, Initial residual = 0.0010555, Final residual = 3.6009e-05, No Iterations 2
smoothSolver:  Solving for Uy, Initial residual = 0.000948146, Final residual = 3.47947e-05, No Iterations 2
smoothSolver:  Solving for Uz, Initial residual = 0.000667169, Final residual = 6.62086e-05, No Iterations 1
DICPCG:  Solving for p, Initial residual = 0.00255049, Final residual = 0.000253522, No Iterations 9
time step continuity errors : sum local = 0.00175533, global = -4.54845e-06, cumulative = 0.662976
smoothSolver:  Solving for omega, Initial residual = 0.0010553, Final residual = 2.63214e-05, No Iterations 2
smoothSolver:  Solving for k, Initial residual = 0.00779959, Final residual = 0.000255995, No Iterations 2
ExecutionTime = 33.4088 s  ClockTime = 34 s

End

