/*---------------------------------------------------------------------------*\
  =========                 |
  \\      /  F ield         | OpenFOAM: The Open Source CFD Toolbox
   \\    /   O peration     | Website:  https://openfoam.org
    \\  /    A nd           | Version:  13
     \\/     M anipulation  |
\*---------------------------------------------------------------------------*/
Build  : 13-cde978a97c93
Exec   : foamRun
Date   : Feb 25 2026
Time   : 17:26:03
Host   : "JOO-DESKTOP"
PID    : 52810
I/O    : uncollated
Case   : /home/joo/OpenFOAM/joo-13/run/trackB_propellerIGE_v13/cases/baseCase
nProcs : 1
sigFpe : Enabling floating point exception trapping (FOAM_SIGFPE).
fileModificationChecking : Monitoring run-time modified files using timeStampMaster (fileModificationSkew 10)
allowSystemOperations : Allowing user-supplied system call operations

// * * * * * * * * * * * * * * * * * * * * * * * * * * * * * * * * * * * * * //
Create time

Create mesh for time = 0

Selecting solver incompressibleFluid
Selecting viscosity model constant
Selecting turbulence model type RAS
    Selecting RAS turbulence model kOmegaSST
No MRF models present

Selecting patchDistMethod meshWave
Creating fvModels from "constant/fvModels"

Selecting finite volume model type propellerDisk
    Name: diskSource

SIMPLE: Convergence criteria found
        p: tolerance 0.0001
        U: tolerance 1e-05
        k: tolerance 1e-05
        omega: tolerance 1e-05


SIMPLE: Operating solver in steady-state mode with 1 outer corrector
SIMPLE: Operating solver in SIMPLE mode



Starting time loop

Time = 1s

smoothSolver:  Solving for Ux, Initial residual = 0, Final residual = 0, No Iterations 0
smoothSolver:  Solving for Uy, Initial residual = 0, Final residual = 0, No Iterations 0
smoothSolver:  Solving for Uz, Initial residual = 0, Final residual = 0, No Iterations 0
DICPCG:  Solving for p, Initial residual = 0, Final residual = 0, No Iterations 0
time step continuity errors : sum local = 0, global = 0, cumulative = 0
smoothSolver:  Solving for omega, Initial residual = 0.218825, Final residual = 0.00849615, No Iterations 1
smoothSolver:  Solving for k, Initial residual = 1, Final residual = 0.0591392, No Iterations 1
ExecutionTime = 0.528179 s  ClockTime = 1 s

Time = 2s

smoothSolver:  Solving for Ux, Initial residual = 0, Final residual = 0, No Iterations 0
smoothSolver:  Solving for Uy, Initial residual = 0, Final residual = 0, No Iterations 0
smoothSolver:  Solving for Uz, Initial residual = 0, Final residual = 0, No Iterations 0
DICPCG:  Solving for p, Initial residual = 0, Final residual = 0, No Iterations 0
time step continuity errors : sum local = 0, global = 0, cumulative = 0
smoothSolver:  Solving for omega, Initial residual = 0.055463, Final residual = 0.00490174, No Iterations 1
smoothSolver:  Solving for k, Initial residual = 0.618415, Final residual = 0.0561796, No Iterations 1
ExecutionTime = 0.620028 s  ClockTime = 1 s

Time = 3s

smoothSolver:  Solving for Ux, Initial residual = 0, Final residual = 0, No Iterations 0
smoothSolver:  Solving for Uy, Initial residual = 0, Final residual = 0, No Iterations 0
smoothSolver:  Solving for Uz, Initial residual = 0, Final residual = 0, No Iterations 0
DICPCG:  Solving for p, Initial residual = 0, Final residual = 0, No Iterations 0
time step continuity errors : sum local = 0, global = 0, cumulative = 0
smoothSolver:  Solving for omega, Initial residual = 0.0198821, Final residual = 0.000355791, No Iterations 2
smoothSolver:  Solving for k, Initial residual = 0.373532, Final residual = 0.007444, No Iterations 2
ExecutionTime = 0.707109 s  ClockTime = 1 s

Time = 4s

smoothSolver:  Solving for Ux, Initial residual = 0, Final residual = 0, No Iterations 0
smoothSolver:  Solving for Uy, Initial residual = 0, Final residual = 0, No Iterations 0
smoothSolver:  Solving for Uz, Initial residual = 0, Final residual = 0, No Iterations 0
DICPCG:  Solving for p, Initial residual = 0, Final residual = 0, No Iterations 0
time step continuity errors : sum local = 0, global = 0, cumulative = 0
smoothSolver:  Solving for omega, Initial residual = 0.00841697, Final residual = 0.000243136, No Iterations 2
smoothSolver:  Solving for k, Initial residual = 0.249646, Final residual = 0.00709282, No Iterations 2
ExecutionTime = 0.802857 s  ClockTime = 1 s

Time = 5s

smoothSolver:  Solving for Ux, Initial residual = 0, Final residual = 0, No Iterations 0
smoothSolver:  Solving for Uy, Initial residual = 0, Final residual = 0, No Iterations 0
smoothSolver:  Solving for Uz, Initial residual = 0, Final residual = 0, No Iterations 0
DICPCG:  Solving for p, Initial residual = 0, Final residual = 0, No Iterations 0
time step continuity errors : sum local = 0, global = 0, cumulative = 0
smoothSolver:  Solving for omega, Initial residual = 0.00444011, Final residual = 0.000167061, No Iterations 2
smoothSolver:  Solving for k, Initial residual = 0.181949, Final residual = 0.00656645, No Iterations 2
ExecutionTime = 0.883345 s  ClockTime = 1 s

Time = 6s

smoothSolver:  Solving for Ux, Initial residual = 0, Final residual = 0, No Iterations 0
smoothSolver:  Solving for Uy, Initial residual = 0, Final residual = 0, No Iterations 0
smoothSolver:  Solving for Uz, Initial residual = 0, Final residual = 0, No Iterations 0
DICPCG:  Solving for p, Initial residual = 0, Final residual = 0, No Iterations 0
time step continuity errors : sum local = 0, global = 0, cumulative = 0
smoothSolver:  Solving for omega, Initial residual = 0.00268715, Final residual = 0.00011904, No Iterations 2
smoothSolver:  Solving for k, Initial residual = 0.142433, Final residual = 0.00604936, No Iterations 2
ExecutionTime = 0.975076 s  ClockTime = 1 s

Time = 7s

smoothSolver:  Solving for Ux, Initial residual = 0, Final residual = 0, No Iterations 0
smoothSolver:  Solving for Uy, Initial residual = 0, Final residual = 0, No Iterations 0
smoothSolver:  Solving for Uz, Initial residual = 0, Final residual = 0, No Iterations 0
DICPCG:  Solving for p, Initial residual = 0, Final residual = 0, No Iterations 0
time step continuity errors : sum local = 0, global = 0, cumulative = 0
smoothSolver:  Solving for omega, Initial residual = 0.0017816, Final residual = 8.8057e-05, No Iterations 2
smoothSolver:  Solving for k, Initial residual = 0.117393, Final residual = 0.0055802, No Iterations 2
ExecutionTime = 1.06591 s  ClockTime = 2 s

Time = 8s

smoothSolver:  Solving for Ux, Initial residual = 0, Final residual = 0, No Iterations 0
smoothSolver:  Solving for Uy, Initial residual = 0, Final residual = 0, No Iterations 0
smoothSolver:  Solving for Uz, Initial residual = 0, Final residual = 0, No Iterations 0
DICPCG:  Solving for p, Initial residual = 0, Final residual = 0, No Iterations 0
time step continuity errors : sum local = 0, global = 0, cumulative = 0
smoothSolver:  Solving for omega, Initial residual = 0.0012588, Final residual = 6.72947e-05, No Iterations 2
smoothSolver:  Solving for k, Initial residual = 0.100152, Final residual = 0.0051589, No Iterations 2
ExecutionTime = 1.15094 s  ClockTime = 2 s

Time = 9s

smoothSolver:  Solving for Ux, Initial residual = 0, Final residual = 0, No Iterations 0
smoothSolver:  Solving for Uy, Initial residual = 0, Final residual = 0, No Iterations 0
smoothSolver:  Solving for Uz, Initial residual = 0, Final residual = 0, No Iterations 0
DICPCG:  Solving for p, Initial residual = 0, Final residual = 0, No Iterations 0
time step continuity errors : sum local = 0, global = 0, cumulative = 0
smoothSolver:  Solving for omega, Initial residual = 0.000932225, Final residual = 5.28506e-05, No Iterations 2
smoothSolver:  Solving for k, Initial residual = 0.0875464, Final residual = 0.00478652, No Iterations 2
ExecutionTime = 1.23386 s  ClockTime = 2 s

Time = 10s

smoothSolver:  Solving for Ux, Initial residual = 0, Final residual = 0, No Iterations 0
smoothSolver:  Solving for Uy, Initial residual = 0, Final residual = 0, No Iterations 0
smoothSolver:  Solving for Uz, Initial residual = 0, Final residual = 0, No Iterations 0
DICPCG:  Solving for p, Initial residual = 0, Final residual = 0, No Iterations 0
time step continuity errors : sum local = 0, global = 0, cumulative = 0
smoothSolver:  Solving for omega, Initial residual = 0.000715589, Final residual = 4.24593e-05, No Iterations 2
smoothSolver:  Solving for k, Initial residual = 0.0771524, Final residual = 0.00441656, No Iterations 2
ExecutionTime = 1.31766 s  ClockTime = 2 s

Time = 11s

smoothSolver:  Solving for Ux, Initial residual = 0, Final residual = 0, No Iterations 0
smoothSolver:  Solving for Uy, Initial residual = 0, Final residual = 0, No Iterations 0
smoothSolver:  Solving for Uz, Initial residual = 0, Final residual = 0, No Iterations 0
DICPCG:  Solving for p, Initial residual = 0, Final residual = 0, No Iterations 0
time step continuity errors : sum local = 0, global = 0, cumulative = 0
smoothSolver:  Solving for omega, Initial residual = 0.000565057, Final residual = 3.47673e-05, No Iterations 2
smoothSolver:  Solving for k, Initial residual = 0.0684976, Final residual = 0.00406732, No Iterations 2
ExecutionTime = 1.40174 s  ClockTime = 2 s

Time = 12s

smoothSolver:  Solving for Ux, Initial residual = 0, Final residual = 0, No Iterations 0
smoothSolver:  Solving for Uy, Initial residual = 0, Final residual = 0, No Iterations 0
smoothSolver:  Solving for Uz, Initial residual = 0, Final residual = 0, No Iterations 0
DICPCG:  Solving for p, Initial residual = 0, Final residual = 0, No Iterations 0
time step continuity errors : sum local = 0, global = 0, cumulative = 0
smoothSolver:  Solving for omega, Initial residual = 0.000456517, Final residual = 2.89329e-05, No Iterations 2
smoothSolver:  Solving for k, Initial residual = 0.0614801, Final residual = 0.00376163, No Iterations 2
ExecutionTime = 1.48556 s  ClockTime = 2 s

Time = 13s

smoothSolver:  Solving for Ux, Initial residual = 0, Final residual = 0, No Iterations 0
smoothSolver:  Solving for Uy, Initial residual = 0, Final residual = 0, No Iterations 0
smoothSolver:  Solving for Uz, Initial residual = 0, Final residual = 0, No Iterations 0
DICPCG:  Solving for p, Initial residual = 0, Final residual = 0, No Iterations 0
time step continuity errors : sum local = 0, global = 0, cumulative = 0
smoothSolver:  Solving for omega, Initial residual = 0.000375841, Final residual = 2.44127e-05, No Iterations 2
smoothSolver:  Solving for k, Initial residual = 0.0556829, Final residual = 0.00349326, No Iterations 2
ExecutionTime = 1.57421 s  ClockTime = 2 s

Time = 14s

smoothSolver:  Solving for Ux, Initial residual = 0, Final residual = 0, No Iterations 0
smoothSolver:  Solving for Uy, Initial residual = 0, Final residual = 0, No Iterations 0
smoothSolver:  Solving for Uz, Initial residual = 0, Final residual = 0, No Iterations 0
DICPCG:  Solving for p, Initial residual = 0, Final residual = 0, No Iterations 0
time step continuity errors : sum local = 0, global = 0, cumulative = 0
smoothSolver:  Solving for omega, Initial residual = 0.000314341, Final residual = 2.08458e-05, No Iterations 2
smoothSolver:  Solving for k, Initial residual = 0.0508562, Final residual = 0.00325899, No Iterations 2
ExecutionTime = 1.66277 s  ClockTime = 2 s

Time = 15s

smoothSolver:  Solving for Ux, Initial residual = 0, Final residual = 0, No Iterations 0
smoothSolver:  Solving for Uy, Initial residual = 0, Final residual = 0, No Iterations 0
smoothSolver:  Solving for Uz, Initial residual = 0, Final residual = 0, No Iterations 0
DICPCG:  Solving for p, Initial residual = 0, Final residual = 0, No Iterations 0
time step continuity errors : sum local = 0, global = 0, cumulative = 0
smoothSolver:  Solving for omega, Initial residual = 0.000266449, Final residual = 1.79857e-05, No Iterations 2
smoothSolver:  Solving for k, Initial residual = 0.0467636, Final residual = 0.00305207, No Iterations 2
ExecutionTime = 1.75071 s  ClockTime = 2 s

Time = 16s

smoothSolver:  Solving for Ux, Initial residual = 0, Final residual = 0, No Iterations 0
smoothSolver:  Solving for Uy, Initial residual = 0, Final residual = 0, No Iterations 0
smoothSolver:  Solving for Uz, Initial residual = 0, Final residual = 0, No Iterations 0
DICPCG:  Solving for p, Initial residual = 0, Final residual = 0, No Iterations 0
time step continuity errors : sum local = 0, global = 0, cumulative = 0
smoothSolver:  Solving for omega, Initial residual = 0.000228468, Final residual = 1.566e-05, No Iterations 2
smoothSolver:  Solving for k, Initial residual = 0.0432589, Final residual = 0.00286867, No Iterations 2
ExecutionTime = 1.83429 s  ClockTime = 2 s

Time = 17s

smoothSolver:  Solving for Ux, Initial residual = 0, Final residual = 0, No Iterations 0
smoothSolver:  Solving for Uy, Initial residual = 0, Final residual = 0, No Iterations 0
smoothSolver:  Solving for Uz, Initial residual = 0, Final residual = 0, No Iterations 0
DICPCG:  Solving for p, Initial residual = 0, Final residual = 0, No Iterations 0
time step continuity errors : sum local = 0, global = 0, cumulative = 0
smoothSolver:  Solving for omega, Initial residual = 0.000197868, Final residual = 1.37451e-05, No Iterations 2
smoothSolver:  Solving for k, Initial residual = 0.0402248, Final residual = 0.00270507, No Iterations 2
ExecutionTime = 1.91592 s  ClockTime = 2 s

Time = 18s

smoothSolver:  Solving for Ux, Initial residual = 0, Final residual = 0, No Iterations 0
smoothSolver:  Solving for Uy, Initial residual = 0, Final residual = 0, No Iterations 0
smoothSolver:  Solving for Uz, Initial residual = 0, Final residual = 0, No Iterations 0
DICPCG:  Solving for p, Initial residual = 0, Final residual = 0, No Iterations 0
time step continuity errors : sum local = 0, global = 0, cumulative = 0
smoothSolver:  Solving for omega, Initial residual = 0.000172874, Final residual = 1.21511e-05, No Iterations 2
smoothSolver:  Solving for k, Initial residual = 0.0375743, Final residual = 0.00255835, No Iterations 2
ExecutionTime = 2.00263 s  ClockTime = 2 s

Time = 19s

smoothSolver:  Solving for Ux, Initial residual = 0, Final residual = 0, No Iterations 0
smoothSolver:  Solving for Uy, Initial residual = 0, Final residual = 0, No Iterations 0
smoothSolver:  Solving for Uz, Initial residual = 0, Final residual = 0, No Iterations 0
DICPCG:  Solving for p, Initial residual = 0, Final residual = 0, No Iterations 0
time step continuity errors : sum local = 0, global = 0, cumulative = 0
smoothSolver:  Solving for omega, Initial residual = 0.00015221, Final residual = 1.0811e-05, No Iterations 2
smoothSolver:  Solving for k, Initial residual = 0.0352367, Final residual = 0.00242589, No Iterations 2
ExecutionTime = 2.08323 s  ClockTime = 3 s

Time = 20s

smoothSolver:  Solving for Ux, Initial residual = 0, Final residual = 0, No Iterations 0
smoothSolver:  Solving for Uy, Initial residual = 0, Final residual = 0, No Iterations 0
smoothSolver:  Solving for Uz, Initial residual = 0, Final residual = 0, No Iterations 0
DICPCG:  Solving for p, Initial residual = 0, Final residual = 0, No Iterations 0
time step continuity errors : sum local = 0, global = 0, cumulative = 0
smoothSolver:  Solving for omega, Initial residual = 0.000134943, Final residual = 9.67429e-06, No Iterations 2
smoothSolver:  Solving for k, Initial residual = 0.0331669, Final residual = 0.00230619, No Iterations 2
ExecutionTime = 2.16755 s  ClockTime = 3 s

Time = 21s

smoothSolver:  Solving for Ux, Initial residual = 0, Final residual = 0, No Iterations 0
smoothSolver:  Solving for Uy, Initial residual = 0, Final residual = 0, No Iterations 0
smoothSolver:  Solving for Uz, Initial residual = 0, Final residual = 0, No Iterations 0
DICPCG:  Solving for p, Initial residual = 0, Final residual = 0, No Iterations 0
time step continuity errors : sum local = 0, global = 0, cumulative = 0
smoothSolver:  Solving for omega, Initial residual = 0.000120374, Final residual = 8.70243e-06, No Iterations 2
smoothSolver:  Solving for k, Initial residual = 0.0313201, Final residual = 0.0021974, No Iterations 2
ExecutionTime = 2.25069 s  ClockTime = 3 s

Time = 22s

smoothSolver:  Solving for Ux, Initial residual = 0, Final residual = 0, No Iterations 0
smoothSolver:  Solving for Uy, Initial residual = 0, Final residual = 0, No Iterations 0
smoothSolver:  Solving for Uz, Initial residual = 0, Final residual = 0, No Iterations 0
DICPCG:  Solving for p, Initial residual = 0, Final residual = 0, No Iterations 0
time step continuity errors : sum local = 0, global = 0, cumulative = 0
smoothSolver:  Solving for omega, Initial residual = 0.000107975, Final residual = 7.86542e-06, No Iterations 2
smoothSolver:  Solving for k, Initial residual = 0.0296608, Final residual = 0.002098, No Iterations 2
ExecutionTime = 2.33678 s  ClockTime = 3 s

Time = 23s

smoothSolver:  Solving for Ux, Initial residual = 0, Final residual = 0, No Iterations 0
smoothSolver:  Solving for Uy, Initial residual = 0, Final residual = 0, No Iterations 0
smoothSolver:  Solving for Uz, Initial residual = 0, Final residual = 0, No Iterations 0
DICPCG:  Solving for p, Initial residual = 0, Final residual = 0, No Iterations 0
time step continuity errors : sum local = 0, global = 0, cumulative = 0
smoothSolver:  Solving for omega, Initial residual = 9.73421e-05, Final residual = 7.13975e-06, No Iterations 2
smoothSolver:  Solving for k, Initial residual = 0.028161, Final residual = 0.00200676, No Iterations 2
ExecutionTime = 2.42278 s  ClockTime = 3 s

Time = 24s

smoothSolver:  Solving for Ux, Initial residual = 0, Final residual = 0, No Iterations 0
smoothSolver:  Solving for Uy, Initial residual = 0, Final residual = 0, No Iterations 0
smoothSolver:  Solving for Uz, Initial residual = 0, Final residual = 0, No Iterations 0
DICPCG:  Solving for p, Initial residual = 0, Final residual = 0, No Iterations 0
time step continuity errors : sum local = 0, global = 0, cumulative = 0
smoothSolver:  Solving for omega, Initial residual = 8.8158e-05, Final residual = 6.5068e-06, No Iterations 2
smoothSolver:  Solving for k, Initial residual = 0.0268033, Final residual = 0.00192303, No Iterations 2
ExecutionTime = 2.51363 s  ClockTime = 3 s

Time = 25s

smoothSolver:  Solving for Ux, Initial residual = 0, Final residual = 0, No Iterations 0
smoothSolver:  Solving for Uy, Initial residual = 0, Final residual = 0, No Iterations 0
smoothSolver:  Solving for Uz, Initial residual = 0, Final residual = 0, No Iterations 0
DICPCG:  Solving for p, Initial residual = 0, Final residual = 0, No Iterations 0
time step continuity errors : sum local = 0, global = 0, cumulative = 0
smoothSolver:  Solving for omega, Initial residual = 8.01745e-05, Final residual = 5.95163e-06, No Iterations 2
smoothSolver:  Solving for k, Initial residual = 0.025569, Final residual = 0.00184597, No Iterations 2
ExecutionTime = 2.60011 s  ClockTime = 3 s

Time = 26s

smoothSolver:  Solving for Ux, Initial residual = 0, Final residual = 0, No Iterations 0
smoothSolver:  Solving for Uy, Initial residual = 0, Final residual = 0, No Iterations 0
smoothSolver:  Solving for Uz, Initial residual = 0, Final residual = 0, No Iterations 0
DICPCG:  Solving for p, Initial residual = 0, Final residual = 0, No Iterations 0
time step continuity errors : sum local = 0, global = 0, cumulative = 0
smoothSolver:  Solving for omega, Initial residual = 7.31937e-05, Final residual = 5.46217e-06, No Iterations 2
smoothSolver:  Solving for k, Initial residual = 0.0244418, Final residual = 0.00177479, No Iterations 2
ExecutionTime = 2.68434 s  ClockTime = 3 s

Time = 27s

smoothSolver:  Solving for Ux, Initial residual = 0, Final residual = 0, No Iterations 0
smoothSolver:  Solving for Uy, Initial residual = 0, Final residual = 0, No Iterations 0
smoothSolver:  Solving for Uz, Initial residual = 0, Final residual = 0, No Iterations 0
DICPCG:  Solving for p, Initial residual = 0, Final residual = 0, No Iterations 0
time step continuity errors : sum local = 0, global = 0, cumulative = 0
smoothSolver:  Solving for omega, Initial residual = 6.70566e-05, Final residual = 5.02861e-06, No Iterations 2
smoothSolver:  Solving for k, Initial residual = 0.0234049, Final residual = 0.00170859, No Iterations 2
ExecutionTime = 2.76937 s  ClockTime = 3 s

Time = 28s

smoothSolver:  Solving for Ux, Initial residual = 0, Final residual = 0, No Iterations 0
smoothSolver:  Solving for Uy, Initial residual = 0, Final residual = 0, No Iterations 0
smoothSolver:  Solving for Uz, Initial residual = 0, Final residual = 0, No Iterations 0
DICPCG:  Solving for p, Initial residual = 0, Final residual = 0, No Iterations 0
time step continuity errors : sum local = 0, global = 0, cumulative = 0
smoothSolver:  Solving for omega, Initial residual = 6.16343e-05, Final residual = 4.64285e-06, No Iterations 2
smoothSolver:  Solving for k, Initial residual = 0.0224483, Final residual = 0.00164689, No Iterations 2
ExecutionTime = 2.85498 s  ClockTime = 3 s

Time = 29s

smoothSolver:  Solving for Ux, Initial residual = 0, Final residual = 0, No Iterations 0
smoothSolver:  Solving for Uy, Initial residual = 0, Final residual = 0, No Iterations 0
smoothSolver:  Solving for Uz, Initial residual = 0, Final residual = 0, No Iterations 0
DICPCG:  Solving for p, Initial residual = 0, Final residual = 0, No Iterations 0
time step continuity errors : sum local = 0, global = 0, cumulative = 0
smoothSolver:  Solving for omega, Initial residual = 5.68214e-05, Final residual = 4.29824e-06, No Iterations 2
smoothSolver:  Solving for k, Initial residual = 0.0215661, Final residual = 0.00158946, No Iterations 2
ExecutionTime = 2.93905 s  ClockTime = 3 s

Time = 30s

smoothSolver:  Solving for Ux, Initial residual = 0, Final residual = 0, No Iterations 0
smoothSolver:  Solving for Uy, Initial residual = 0, Final residual = 0, No Iterations 0
smoothSolver:  Solving for Uz, Initial residual = 0, Final residual = 0, No Iterations 0
DICPCG:  Solving for p, Initial residual = 0, Final residual = 0, No Iterations 0
time step continuity errors : sum local = 0, global = 0, cumulative = 0
smoothSolver:  Solving for omega, Initial residual = 5.25312e-05, Final residual = 3.98919e-06, No Iterations 2
smoothSolver:  Solving for k, Initial residual = 0.0207505, Final residual = 0.00153594, No Iterations 2
ExecutionTime = 3.02331 s  ClockTime = 4 s

Time = 31s

smoothSolver:  Solving for Ux, Initial residual = 0, Final residual = 0, No Iterations 0
smoothSolver:  Solving for Uy, Initial residual = 0, Final residual = 0, No Iterations 0
smoothSolver:  Solving for Uz, Initial residual = 0, Final residual = 0, No Iterations 0
DICPCG:  Solving for p, Initial residual = 0, Final residual = 0, No Iterations 0
time step continuity errors : sum local = 0, global = 0, cumulative = 0
smoothSolver:  Solving for omega, Initial residual = 4.86917e-05, Final residual = 3.71106e-06, No Iterations 2
smoothSolver:  Solving for k, Initial residual = 0.019994, Final residual = 0.0014859, No Iterations 2
ExecutionTime = 3.10479 s  ClockTime = 4 s

Time = 32s

smoothSolver:  Solving for Ux, Initial residual = 0, Final residual = 0, No Iterations 0
smoothSolver:  Solving for Uy, Initial residual = 0, Final residual = 0, No Iterations 0
smoothSolver:  Solving for Uz, Initial residual = 0, Final residual = 0, No Iterations 0
DICPCG:  Solving for p, Initial residual = 0, Final residual = 0, No Iterations 0
time step continuity errors : sum local = 0, global = 0, cumulative = 0
smoothSolver:  Solving for omega, Initial residual = 4.52428e-05, Final residual = 3.45992e-06, No Iterations 2
smoothSolver:  Solving for k, Initial residual = 0.0192901, Final residual = 0.001439, No Iterations 2
ExecutionTime = 3.18567 s  ClockTime = 4 s

Time = 33s

smoothSolver:  Solving for Ux, Initial residual = 0, Final residual = 0, No Iterations 0
smoothSolver:  Solving for Uy, Initial residual = 0, Final residual = 0, No Iterations 0
smoothSolver:  Solving for Uz, Initial residual = 0, Final residual = 0, No Iterations 0
DICPCG:  Solving for p, Initial residual = 0, Final residual = 0, No Iterations 0
time step continuity errors : sum local = 0, global = 0, cumulative = 0
smoothSolver:  Solving for omega, Initial residual = 4.21339e-05, Final residual = 3.23244e-06, No Iterations 2
smoothSolver:  Solving for k, Initial residual = 0.0186313, Final residual = 0.00139478, No Iterations 2
ExecutionTime = 3.27128 s  ClockTime = 4 s

Time = 34s

smoothSolver:  Solving for Ux, Initial residual = 0, Final residual = 0, No Iterations 0
smoothSolver:  Solving for Uy, Initial residual = 0, Final residual = 0, No Iterations 0
smoothSolver:  Solving for Uz, Initial residual = 0, Final residual = 0, No Iterations 0
DICPCG:  Solving for p, Initial residual = 0, Final residual = 0, No Iterations 0
time step continuity errors : sum local = 0, global = 0, cumulative = 0
smoothSolver:  Solving for omega, Initial residual = 3.93226e-05, Final residual = 3.02578e-06, No Iterations 2
smoothSolver:  Solving for k, Initial residual = 0.018015, Final residual = 0.00135314, No Iterations 2
ExecutionTime = 3.35376 s  ClockTime = 4 s

Time = 35s

smoothSolver:  Solving for Ux, Initial residual = 0, Final residual = 0, No Iterations 0
smoothSolver:  Solving for Uy, Initial residual = 0, Final residual = 0, No Iterations 0
smoothSolver:  Solving for Uz, Initial residual = 0, Final residual = 0, No Iterations 0
DICPCG:  Solving for p, Initial residual = 0, Final residual = 0, No Iterations 0
time step continuity errors : sum local = 0, global = 0, cumulative = 0
smoothSolver:  Solving for omega, Initial residual = 3.67726e-05, Final residual = 2.83753e-06, No Iterations 2
smoothSolver:  Solving for k, Initial residual = 0.0174375, Final residual = 0.00131388, No Iterations 2
ExecutionTime = 3.43647 s  ClockTime = 4 s

Time = 36s

smoothSolver:  Solving for Ux, Initial residual = 0, Final residual = 0, No Iterations 0
smoothSolver:  Solving for Uy, Initial residual = 0, Final residual = 0, No Iterations 0
smoothSolver:  Solving for Uz, Initial residual = 0, Final residual = 0, No Iterations 0
DICPCG:  Solving for p, Initial residual = 0, Final residual = 0, No Iterations 0
time step continuity errors : sum local = 0, global = 0, cumulative = 0
smoothSolver:  Solving for omega, Initial residual = 3.44529e-05, Final residual = 2.66558e-06, No Iterations 2
smoothSolver:  Solving for k, Initial residual = 0.016896, Final residual = 0.00127687, No Iterations 2
ExecutionTime = 3.51914 s  ClockTime = 4 s

Time = 37s

smoothSolver:  Solving for Ux, Initial residual = 0, Final residual = 0, No Iterations 0
smoothSolver:  Solving for Uy, Initial residual = 0, Final residual = 0, No Iterations 0
smoothSolver:  Solving for Uz, Initial residual = 0, Final residual = 0, No Iterations 0
DICPCG:  Solving for p, Initial residual = 0, Final residual = 0, No Iterations 0
time step continuity errors : sum local = 0, global = 0, cumulative = 0
smoothSolver:  Solving for omega, Initial residual = 3.23371e-05, Final residual = 2.50815e-06, No Iterations 2
smoothSolver:  Solving for k, Initial residual = 0.0163873, Final residual = 0.0012419, No Iterations 2
ExecutionTime = 3.6019 s  ClockTime = 4 s

Time = 38s

smoothSolver:  Solving for Ux, Initial residual = 0, Final residual = 0, No Iterations 0
smoothSolver:  Solving for Uy, Initial residual = 0, Final residual = 0, No Iterations 0
smoothSolver:  Solving for Uz, Initial residual = 0, Final residual = 0, No Iterations 0
DICPCG:  Solving for p, Initial residual = 0, Final residual = 0, No Iterations 0
time step continuity errors : sum local = 0, global = 0, cumulative = 0
smoothSolver:  Solving for omega, Initial residual = 3.04024e-05, Final residual = 2.36367e-06, No Iterations 2
smoothSolver:  Solving for k, Initial residual = 0.0159084, Final residual = 0.00120882, No Iterations 2
ExecutionTime = 3.68585 s  ClockTime = 4 s

Time = 39s

smoothSolver:  Solving for Ux, Initial residual = 0, Final residual = 0, No Iterations 0
smoothSolver:  Solving for Uy, Initial residual = 0, Final residual = 0, No Iterations 0
smoothSolver:  Solving for Uz, Initial residual = 0, Final residual = 0, No Iterations 0
DICPCG:  Solving for p, Initial residual = 0, Final residual = 0, No Iterations 0
time step continuity errors : sum local = 0, global = 0, cumulative = 0
smoothSolver:  Solving for omega, Initial residual = 2.86289e-05, Final residual = 2.23079e-06, No Iterations 2
smoothSolver:  Solving for k, Initial residual = 0.0154558, Final residual = 0.0011774, No Iterations 2
ExecutionTime = 3.77414 s  ClockTime = 4 s

Time = 40s

smoothSolver:  Solving for Ux, Initial residual = 0, Final residual = 0, No Iterations 0
smoothSolver:  Solving for Uy, Initial residual = 0, Final residual = 0, No Iterations 0
smoothSolver:  Solving for Uz, Initial residual = 0, Final residual = 0, No Iterations 0
DICPCG:  Solving for p, Initial residual = 0, Final residual = 0, No Iterations 0
time step continuity errors : sum local = 0, global = 0, cumulative = 0
smoothSolver:  Solving for omega, Initial residual = 2.69997e-05, Final residual = 2.10831e-06, No Iterations 2
smoothSolver:  Solving for k, Initial residual = 0.0150277, Final residual = 0.00114753, No Iterations 2
ExecutionTime = 3.86122 s  ClockTime = 4 s

Time = 41s

smoothSolver:  Solving for Ux, Initial residual = 0, Final residual = 0, No Iterations 0
smoothSolver:  Solving for Uy, Initial residual = 0, Final residual = 0, No Iterations 0
smoothSolver:  Solving for Uz, Initial residual = 0, Final residual = 0, No Iterations 0
DICPCG:  Solving for p, Initial residual = 0, Final residual = 0, No Iterations 0
time step continuity errors : sum local = 0, global = 0, cumulative = 0
smoothSolver:  Solving for omega, Initial residual = 2.54996e-05, Final residual = 1.9952e-06, No Iterations 2
smoothSolver:  Solving for k, Initial residual = 0.0146229, Final residual = 0.00111917, No Iterations 2
ExecutionTime = 3.95068 s  ClockTime = 4 s

Time = 42s

smoothSolver:  Solving for Ux, Initial residual = 0, Final residual = 0, No Iterations 0
smoothSolver:  Solving for Uy, Initial residual = 0, Final residual = 0, No Iterations 0
smoothSolver:  Solving for Uz, Initial residual = 0, Final residual = 0, No Iterations 0
DICPCG:  Solving for p, Initial residual = 0, Final residual = 0, No Iterations 0
time step continuity errors : sum local = 0, global = 0, cumulative = 0
smoothSolver:  Solving for omega, Initial residual = 2.41157e-05, Final residual = 1.89054e-06, No Iterations 2
smoothSolver:  Solving for k, Initial residual = 0.0142387, Final residual = 0.00109214, No Iterations 2
ExecutionTime = 4.04334 s  ClockTime = 5 s

Time = 43s

smoothSolver:  Solving for Ux, Initial residual = 0, Final residual = 0, No Iterations 0
smoothSolver:  Solving for Uy, Initial residual = 0, Final residual = 0, No Iterations 0
smoothSolver:  Solving for Uz, Initial residual = 0, Final residual = 0, No Iterations 0
DICPCG:  Solving for p, Initial residual = 0, Final residual = 0, No Iterations 0
time step continuity errors : sum local = 0, global = 0, cumulative = 0
smoothSolver:  Solving for omega, Initial residual = 2.28365e-05, Final residual = 1.79354e-06, No Iterations 2
smoothSolver:  Solving for k, Initial residual = 0.0138742, Final residual = 0.00106639, No Iterations 2
ExecutionTime = 4.13324 s  ClockTime = 5 s

Time = 44s

smoothSolver:  Solving for Ux, Initial residual = 0, Final residual = 0, No Iterations 0
smoothSolver:  Solving for Uy, Initial residual = 0, Final residual = 0, No Iterations 0
smoothSolver:  Solving for Uz, Initial residual = 0, Final residual = 0, No Iterations 0
DICPCG:  Solving for p, Initial residual = 0, Final residual = 0, No Iterations 0
time step continuity errors : sum local = 0, global = 0, cumulative = 0
smoothSolver:  Solving for omega, Initial residual = 2.16518e-05, Final residual = 1.70346e-06, No Iterations 2
smoothSolver:  Solving for k, Initial residual = 0.0135283, Final residual = 0.00104186, No Iterations 2
ExecutionTime = 4.22804 s  ClockTime = 5 s

Time = 45s

smoothSolver:  Solving for Ux, Initial residual = 0, Final residual = 0, No Iterations 0
smoothSolver:  Solving for Uy, Initial residual = 0, Final residual = 0, No Iterations 0
smoothSolver:  Solving for Uz, Initial residual = 0, Final residual = 0, No Iterations 0
DICPCG:  Solving for p, Initial residual = 0, Final residual = 0, No Iterations 0
time step continuity errors : sum local = 0, global = 0, cumulative = 0
smoothSolver:  Solving for omega, Initial residual = 2.05528e-05, Final residual = 1.61969e-06, No Iterations 2
smoothSolver:  Solving for k, Initial residual = 0.0131994, Final residual = 0.00101846, No Iterations 2
ExecutionTime = 4.31589 s  ClockTime = 5 s

Time = 46s

smoothSolver:  Solving for Ux, Initial residual = 0, Final residual = 0, No Iterations 0
smoothSolver:  Solving for Uy, Initial residual = 0, Final residual = 0, No Iterations 0
smoothSolver:  Solving for Uz, Initial residual = 0, Final residual = 0, No Iterations 0
DICPCG:  Solving for p, Initial residual = 0, Final residual = 0, No Iterations 0
time step continuity errors : sum local = 0, global = 0, cumulative = 0
smoothSolver:  Solving for omega, Initial residual = 1.95316e-05, Final residual = 1.54166e-06, No Iterations 2
smoothSolver:  Solving for k, Initial residual = 0.0128862, Final residual = 0.000996103, No Iterations 2
ExecutionTime = 4.40498 s  ClockTime = 5 s

Time = 47s

smoothSolver:  Solving for Ux, Initial residual = 0, Final residual = 0, No Iterations 0
smoothSolver:  Solving for Uy, Initial residual = 0, Final residual = 0, No Iterations 0
smoothSolver:  Solving for Uz, Initial residual = 0, Final residual = 0, No Iterations 0
DICPCG:  Solving for p, Initial residual = 0, Final residual = 0, No Iterations 0
time step continuity errors : sum local = 0, global = 0, cumulative = 0
smoothSolver:  Solving for omega, Initial residual = 1.85811e-05, Final residual = 1.46886e-06, No Iterations 2
smoothSolver:  Solving for k, Initial residual = 0.0125869, Final residual = 0.000974654, No Iterations 2
ExecutionTime = 4.49424 s  ClockTime = 5 s

Time = 48s

smoothSolver:  Solving for Ux, Initial residual = 0, Final residual = 0, No Iterations 0
smoothSolver:  Solving for Uy, Initial residual = 0, Final residual = 0, No Iterations 0
smoothSolver:  Solving for Uz, Initial residual = 0, Final residual = 0, No Iterations 0
DICPCG:  Solving for p, Initial residual = 0, Final residual = 0, No Iterations 0
time step continuity errors : sum local = 0, global = 0, cumulative = 0
smoothSolver:  Solving for omega, Initial residual = 1.7695e-05, Final residual = 1.40085e-06, No Iterations 2
smoothSolver:  Solving for k, Initial residual = 0.0123014, Final residual = 0.000954135, No Iterations 2
ExecutionTime = 4.5905 s  ClockTime = 5 s

Time = 49s

smoothSolver:  Solving for Ux, Initial residual = 0, Final residual = 0, No Iterations 0
smoothSolver:  Solving for Uy, Initial residual = 0, Final residual = 0, No Iterations 0
smoothSolver:  Solving for Uz, Initial residual = 0, Final residual = 0, No Iterations 0
DICPCG:  Solving for p, Initial residual = 0, Final residual = 0, No Iterations 0
time step continuity errors : sum local = 0, global = 0, cumulative = 0
smoothSolver:  Solving for omega, Initial residual = 1.68678e-05, Final residual = 1.33723e-06, No Iterations 2
smoothSolver:  Solving for k, Initial residual = 0.0120289, Final residual = 0.000934492, No Iterations 2
ExecutionTime = 4.6795 s  ClockTime = 5 s

Time = 50s

smoothSolver:  Solving for Ux, Initial residual = 0, Final residual = 0, No Iterations 0
smoothSolver:  Solving for Uy, Initial residual = 0, Final residual = 0, No Iterations 0
smoothSolver:  Solving for Uz, Initial residual = 0, Final residual = 0, No Iterations 0
DICPCG:  Solving for p, Initial residual = 0, Final residual = 0, No Iterations 0
time step continuity errors : sum local = 0, global = 0, cumulative = 0
smoothSolver:  Solving for omega, Initial residual = 1.60946e-05, Final residual = 1.27763e-06, No Iterations 2
smoothSolver:  Solving for k, Initial residual = 0.0117684, Final residual = 0.000915662, No Iterations 2
ExecutionTime = 4.83229 s  ClockTime = 5 s

Time = 51s

smoothSolver:  Solving for Ux, Initial residual = 0, Final residual = 0, No Iterations 0
smoothSolver:  Solving for Uy, Initial residual = 0, Final residual = 0, No Iterations 0
smoothSolver:  Solving for Uz, Initial residual = 0, Final residual = 0, No Iterations 0
DICPCG:  Solving for p, Initial residual = 0, Final residual = 0, No Iterations 0
time step continuity errors : sum local = 0, global = 0, cumulative = 0
smoothSolver:  Solving for omega, Initial residual = 1.53707e-05, Final residual = 1.22174e-06, No Iterations 2
smoothSolver:  Solving for k, Initial residual = 0.0115187, Final residual = 0.000897554, No Iterations 2
ExecutionTime = 4.91571 s  ClockTime = 5 s

Time = 52s

smoothSolver:  Solving for Ux, Initial residual = 0, Final residual = 0, No Iterations 0
smoothSolver:  Solving for Uy, Initial residual = 0, Final residual = 0, No Iterations 0
smoothSolver:  Solving for Uz, Initial residual = 0, Final residual = 0, No Iterations 0
DICPCG:  Solving for p, Initial residual = 0, Final residual = 0, No Iterations 0
time step continuity errors : sum local = 0, global = 0, cumulative = 0
smoothSolver:  Solving for omega, Initial residual = 1.46922e-05, Final residual = 1.16925e-06, No Iterations 2
smoothSolver:  Solving for k, Initial residual = 0.0112795, Final residual = 0.000880168, No Iterations 2
ExecutionTime = 5.00051 s  ClockTime = 5 s

Time = 53s

smoothSolver:  Solving for Ux, Initial residual = 0, Final residual = 0, No Iterations 0
smoothSolver:  Solving for Uy, Initial residual = 0, Final residual = 0, No Iterations 0
smoothSolver:  Solving for Uz, Initial residual = 0, Final residual = 0, No Iterations 0
DICPCG:  Solving for p, Initial residual = 0, Final residual = 0, No Iterations 0
time step continuity errors : sum local = 0, global = 0, cumulative = 0
smoothSolver:  Solving for omega, Initial residual = 1.40555e-05, Final residual = 1.1199e-06, No Iterations 2
smoothSolver:  Solving for k, Initial residual = 0.0110504, Final residual = 0.000863469, No Iterations 2
ExecutionTime = 5.08573 s  ClockTime = 6 s

Time = 54s

smoothSolver:  Solving for Ux, Initial residual = 0, Final residual = 0, No Iterations 0
smoothSolver:  Solving for Uy, Initial residual = 0, Final residual = 0, No Iterations 0
smoothSolver:  Solving for Uz, Initial residual = 0, Final residual = 0, No Iterations 0
DICPCG:  Solving for p, Initial residual = 0, Final residual = 0, No Iterations 0
time step continuity errors : sum local = 0, global = 0, cumulative = 0
smoothSolver:  Solving for omega, Initial residual = 1.34572e-05, Final residual = 1.07345e-06, No Iterations 2
smoothSolver:  Solving for k, Initial residual = 0.0108306, Final residual = 0.000847415, No Iterations 2
ExecutionTime = 5.16834 s  ClockTime = 6 s

Time = 55s

smoothSolver:  Solving for Ux, Initial residual = 0, Final residual = 0, No Iterations 0
smoothSolver:  Solving for Uy, Initial residual = 0, Final residual = 0, No Iterations 0
smoothSolver:  Solving for Uz, Initial residual = 0, Final residual = 0, No Iterations 0
DICPCG:  Solving for p, Initial residual = 0, Final residual = 0, No Iterations 0
time step continuity errors : sum local = 0, global = 0, cumulative = 0
smoothSolver:  Solving for omega, Initial residual = 1.28945e-05, Final residual = 1.02969e-06, No Iterations 2
smoothSolver:  Solving for k, Initial residual = 0.0106195, Final residual = 0.000831957, No Iterations 2
ExecutionTime = 5.25469 s  ClockTime = 6 s

Time = 56s

smoothSolver:  Solving for Ux, Initial residual = 0, Final residual = 0, No Iterations 0
smoothSolver:  Solving for Uy, Initial residual = 0, Final residual = 0, No Iterations 0
smoothSolver:  Solving for Uz, Initial residual = 0, Final residual = 0, No Iterations 0
DICPCG:  Solving for p, Initial residual = 0, Final residual = 0, No Iterations 0
time step continuity errors : sum local = 0, global = 0, cumulative = 0
smoothSolver:  Solving for omega, Initial residual = 1.23646e-05, Final residual = 9.88415e-07, No Iterations 2
smoothSolver:  Solving for k, Initial residual = 0.0104162, Final residual = 0.000817028, No Iterations 2
ExecutionTime = 5.34033 s  ClockTime = 6 s

Time = 57s

smoothSolver:  Solving for Ux, Initial residual = 0, Final residual = 0, No Iterations 0
smoothSolver:  Solving for Uy, Initial residual = 0, Final residual = 0, No Iterations 0
smoothSolver:  Solving for Uz, Initial residual = 0, Final residual = 0, No Iterations 0
DICPCG:  Solving for p, Initial residual = 0, Final residual = 0, No Iterations 0
time step continuity errors : sum local = 0, global = 0, cumulative = 0
smoothSolver:  Solving for omega, Initial residual = 1.1865e-05, Final residual = 9.49446e-07, No Iterations 2
smoothSolver:  Solving for k, Initial residual = 0.0102208, Final residual = 0.000802655, No Iterations 2
ExecutionTime = 5.42336 s  ClockTime = 6 s

Time = 58s

smoothSolver:  Solving for Ux, Initial residual = 0, Final residual = 0, No Iterations 0
smoothSolver:  Solving for Uy, Initial residual = 0, Final residual = 0, No Iterations 0
smoothSolver:  Solving for Uz, Initial residual = 0, Final residual = 0, No Iterations 0
DICPCG:  Solving for p, Initial residual = 0, Final residual = 0, No Iterations 0
time step continuity errors : sum local = 0, global = 0, cumulative = 0
smoothSolver:  Solving for omega, Initial residual = 1.13936e-05, Final residual = 9.12618e-07, No Iterations 2
smoothSolver:  Solving for k, Initial residual = 0.0100329, Final residual = 0.000788805, No Iterations 2
ExecutionTime = 5.50646 s  ClockTime = 6 s

Time = 59s

smoothSolver:  Solving for Ux, Initial residual = 0, Final residual = 0, No Iterations 0
smoothSolver:  Solving for Uy, Initial residual = 0, Final residual = 0, No Iterations 0
smoothSolver:  Solving for Uz, Initial residual = 0, Final residual = 0, No Iterations 0
DICPCG:  Solving for p, Initial residual = 0, Final residual = 0, No Iterations 0
time step continuity errors : sum local = 0, global = 0, cumulative = 0
smoothSolver:  Solving for omega, Initial residual = 1.09484e-05, Final residual = 8.77782e-07, No Iterations 2
smoothSolver:  Solving for k, Initial residual = 0.00985209, Final residual = 0.000775449, No Iterations 2
ExecutionTime = 5.5837 s  ClockTime = 6 s

Time = 60s

smoothSolver:  Solving for Ux, Initial residual = 0, Final residual = 0, No Iterations 0
smoothSolver:  Solving for Uy, Initial residual = 0, Final residual = 0, No Iterations 0
smoothSolver:  Solving for Uz, Initial residual = 0, Final residual = 0, No Iterations 0
DICPCG:  Solving for p, Initial residual = 0, Final residual = 0, No Iterations 0
time step continuity errors : sum local = 0, global = 0, cumulative = 0
smoothSolver:  Solving for omega, Initial residual = 1.05274e-05, Final residual = 8.44801e-07, No Iterations 2
smoothSolver:  Solving for k, Initial residual = 0.0096779, Final residual = 0.000762557, No Iterations 2
ExecutionTime = 5.67049 s  ClockTime = 6 s

Time = 61s

smoothSolver:  Solving for Ux, Initial residual = 0, Final residual = 0, No Iterations 0
smoothSolver:  Solving for Uy, Initial residual = 0, Final residual = 0, No Iterations 0
smoothSolver:  Solving for Uz, Initial residual = 0, Final residual = 0, No Iterations 0
DICPCG:  Solving for p, Initial residual = 0, Final residual = 0, No Iterations 0
time step continuity errors : sum local = 0, global = 0, cumulative = 0
smoothSolver:  Solving for omega, Initial residual = 1.0129e-05, Final residual = 8.13548e-07, No Iterations 2
smoothSolver:  Solving for k, Initial residual = 0.0095098, Final residual = 0.00075009, No Iterations 2
ExecutionTime = 5.75277 s  ClockTime = 6 s

Time = 62s

smoothSolver:  Solving for Ux, Initial residual = 0, Final residual = 0, No Iterations 0
smoothSolver:  Solving for Uy, Initial residual = 0, Final residual = 0, No Iterations 0
smoothSolver:  Solving for Uz, Initial residual = 0, Final residual = 0, No Iterations 0
DICPCG:  Solving for p, Initial residual = 0, Final residual = 0, No Iterations 0
time step continuity errors : sum local = 0, global = 0, cumulative = 0
smoothSolver:  Solving for omega, Initial residual = 9.75163e-06, Final residual = 7.83908e-07, No Iterations 2
smoothSolver:  Solving for k, Initial residual = 0.00934739, Final residual = 0.000738023, No Iterations 2
ExecutionTime = 5.83861 s  ClockTime = 6 s

Time = 63s

smoothSolver:  Solving for Ux, Initial residual = 0, Final residual = 0, No Iterations 0
smoothSolver:  Solving for Uy, Initial residual = 0, Final residual = 0, No Iterations 0
smoothSolver:  Solving for Uz, Initial residual = 0, Final residual = 0, No Iterations 0
DICPCG:  Solving for p, Initial residual = 0, Final residual = 0, No Iterations 0
time step continuity errors : sum local = 0, global = 0, cumulative = 0
smoothSolver:  Solving for omega, Initial residual = 9.39392e-06, Final residual = 7.55775e-07, No Iterations 2
smoothSolver:  Solving for k, Initial residual = 0.0091907, Final residual = 0.00072636, No Iterations 2
ExecutionTime = 5.91708 s  ClockTime = 6 s

Time = 64s

smoothSolver:  Solving for Ux, Initial residual = 0, Final residual = 0, No Iterations 0
smoothSolver:  Solving for Uy, Initial residual = 0, Final residual = 0, No Iterations 0
smoothSolver:  Solving for Uz, Initial residual = 0, Final residual = 0, No Iterations 0
DICPCG:  Solving for p, Initial residual = 0, Final residual = 0, No Iterations 0
time step continuity errors : sum local = 0, global = 0, cumulative = 0
smoothSolver:  Solving for omega, Initial residual = 9.05453e-06, Final residual = 7.29051e-07, No Iterations 2
smoothSolver:  Solving for k, Initial residual = 0.00903941, Final residual = 0.00071508, No Iterations 2
ExecutionTime = 5.99751 s  ClockTime = 6 s

Time = 65s

smoothSolver:  Solving for Ux, Initial residual = 0, Final residual = 0, No Iterations 0
smoothSolver:  Solving for Uy, Initial residual = 0, Final residual = 0, No Iterations 0
smoothSolver:  Solving for Uz, Initial residual = 0, Final residual = 0, No Iterations 0
DICPCG:  Solving for p, Initial residual = 0, Final residual = 0, No Iterations 0
time step continuity errors : sum local = 0, global = 0, cumulative = 0
smoothSolver:  Solving for omega, Initial residual = 8.73227e-06, Final residual = 7.03646e-07, No Iterations 2
smoothSolver:  Solving for k, Initial residual = 0.00889321, Final residual = 0.000704161, No Iterations 2
ExecutionTime = 6.08188 s  ClockTime = 7 s

Time = 66s

smoothSolver:  Solving for Ux, Initial residual = 0, Final residual = 0, No Iterations 0
smoothSolver:  Solving for Uy, Initial residual = 0, Final residual = 0, No Iterations 0
smoothSolver:  Solving for Uz, Initial residual = 0, Final residual = 0, No Iterations 0
DICPCG:  Solving for p, Initial residual = 0, Final residual = 0, No Iterations 0
time step continuity errors : sum local = 0, global = 0, cumulative = 0
smoothSolver:  Solving for omega, Initial residual = 8.42604e-06, Final residual = 6.79478e-07, No Iterations 2
smoothSolver:  Solving for k, Initial residual = 0.00875155, Final residual = 0.000693562, No Iterations 2
ExecutionTime = 6.16325 s  ClockTime = 7 s

Time = 67s

smoothSolver:  Solving for Ux, Initial residual = 0, Final residual = 0, No Iterations 0
smoothSolver:  Solving for Uy, Initial residual = 0, Final residual = 0, No Iterations 0
smoothSolver:  Solving for Uz, Initial residual = 0, Final residual = 0, No Iterations 0
DICPCG:  Solving for p, Initial residual = 0, Final residual = 0, No Iterations 0
time step continuity errors : sum local = 0, global = 0, cumulative = 0
smoothSolver:  Solving for omega, Initial residual = 8.13482e-06, Final residual = 6.56469e-07, No Iterations 2
smoothSolver:  Solving for k, Initial residual = 0.00861447, Final residual = 0.00068329, No Iterations 2
ExecutionTime = 6.24637 s  ClockTime = 7 s

Time = 68s

smoothSolver:  Solving for Ux, Initial residual = 0, Final residual = 0, No Iterations 0
smoothSolver:  Solving for Uy, Initial residual = 0, Final residual = 0, No Iterations 0
smoothSolver:  Solving for Uz, Initial residual = 0, Final residual = 0, No Iterations 0
DICPCG:  Solving for p, Initial residual = 0, Final residual = 0, No Iterations 0
time step continuity errors : sum local = 0, global = 0, cumulative = 0
smoothSolver:  Solving for omega, Initial residual = 7.85767e-06, Final residual = 6.34549e-07, No Iterations 2
smoothSolver:  Solving for k, Initial residual = 0.00848188, Final residual = 0.00067334, No Iterations 2
ExecutionTime = 6.31808 s  ClockTime = 7 s

Time = 69s

smoothSolver:  Solving for Ux, Initial residual = 0, Final residual = 0, No Iterations 0
smoothSolver:  Solving for Uy, Initial residual = 0, Final residual = 0, No Iterations 0
smoothSolver:  Solving for Uz, Initial residual = 0, Final residual = 0, No Iterations 0
DICPCG:  Solving for p, Initial residual = 0, Final residual = 0, No Iterations 0
time step continuity errors : sum local = 0, global = 0, cumulative = 0
smoothSolver:  Solving for omega, Initial residual = 7.59371e-06, Final residual = 6.13652e-07, No Iterations 2
smoothSolver:  Solving for k, Initial residual = 0.00835357, Final residual = 0.000663696, No Iterations 2
ExecutionTime = 6.3967 s  ClockTime = 7 s

Time = 70s

smoothSolver:  Solving for Ux, Initial residual = 0, Final residual = 0, No Iterations 0
smoothSolver:  Solving for Uy, Initial residual = 0, Final residual = 0, No Iterations 0
smoothSolver:  Solving for Uz, Initial residual = 0, Final residual = 0, No Iterations 0
DICPCG:  Solving for p, Initial residual = 0, Final residual = 0, No Iterations 0
time step continuity errors : sum local = 0, global = 0, cumulative = 0
smoothSolver:  Solving for omega, Initial residual = 7.34216e-06, Final residual = 5.93717e-07, No Iterations 2
smoothSolver:  Solving for k, Initial residual = 0.00822932, Final residual = 0.000654345, No Iterations 2
ExecutionTime = 6.4799 s  ClockTime = 7 s

Time = 71s

smoothSolver:  Solving for Ux, Initial residual = 0, Final residual = 0, No Iterations 0
smoothSolver:  Solving for Uy, Initial residual = 0, Final residual = 0, No Iterations 0
smoothSolver:  Solving for Uz, Initial residual = 0, Final residual = 0, No Iterations 0
DICPCG:  Solving for p, Initial residual = 0, Final residual = 0, No Iterations 0
time step continuity errors : sum local = 0, global = 0, cumulative = 0
smoothSolver:  Solving for omega, Initial residual = 7.10227e-06, Final residual = 5.74687e-07, No Iterations 2
smoothSolver:  Solving for k, Initial residual = 0.00810892, Final residual = 0.000645271, No Iterations 2
ExecutionTime = 6.55628 s  ClockTime = 7 s

Time = 72s

smoothSolver:  Solving for Ux, Initial residual = 0, Final residual = 0, No Iterations 0
smoothSolver:  Solving for Uy, Initial residual = 0, Final residual = 0, No Iterations 0
smoothSolver:  Solving for Uz, Initial residual = 0, Final residual = 0, No Iterations 0
DICPCG:  Solving for p, Initial residual = 0, Final residual = 0, No Iterations 0
time step continuity errors : sum local = 0, global = 0, cumulative = 0
smoothSolver:  Solving for omega, Initial residual = 6.87333e-06, Final residual = 5.5651e-07, No Iterations 2
smoothSolver:  Solving for k, Initial residual = 0.00799216, Final residual = 0.000636459, No Iterations 2
ExecutionTime = 6.63572 s  ClockTime = 7 s

Time = 73s

smoothSolver:  Solving for Ux, Initial residual = 0, Final residual = 0, No Iterations 0
smoothSolver:  Solving for Uy, Initial residual = 0, Final residual = 0, No Iterations 0
smoothSolver:  Solving for Uz, Initial residual = 0, Final residual = 0, No Iterations 0
DICPCG:  Solving for p, Initial residual = 0, Final residual = 0, No Iterations 0
time step continuity errors : sum local = 0, global = 0, cumulative = 0
smoothSolver:  Solving for omega, Initial residual = 6.65472e-06, Final residual = 5.39138e-07, No Iterations 2
smoothSolver:  Solving for k, Initial residual = 0.00787885, Final residual = 0.000627895, No Iterations 2
ExecutionTime = 6.71431 s  ClockTime = 7 s

Time = 74s

smoothSolver:  Solving for Ux, Initial residual = 0, Final residual = 0, No Iterations 0
smoothSolver:  Solving for Uy, Initial residual = 0, Final residual = 0, No Iterations 0
smoothSolver:  Solving for Uz, Initial residual = 0, Final residual = 0, No Iterations 0
DICPCG:  Solving for p, Initial residual = 0, Final residual = 0, No Iterations 0
time step continuity errors : sum local = 0, global = 0, cumulative = 0
smoothSolver:  Solving for omega, Initial residual = 6.44584e-06, Final residual = 5.22524e-07, No Iterations 2
smoothSolver:  Solving for k, Initial residual = 0.00776862, Final residual = 0.000619553, No Iterations 2
ExecutionTime = 6.7953 s  ClockTime = 7 s

Time = 75s

smoothSolver:  Solving for Ux, Initial residual = 0, Final residual = 0, No Iterations 0
smoothSolver:  Solving for Uy, Initial residual = 0, Final residual = 0, No Iterations 0
smoothSolver:  Solving for Uz, Initial residual = 0, Final residual = 0, No Iterations 0
DICPCG:  Solving for p, Initial residual = 0, Final residual = 0, No Iterations 0
time step continuity errors : sum local = 0, global = 0, cumulative = 0
smoothSolver:  Solving for omega, Initial residual = 6.24613e-06, Final residual = 5.06626e-07, No Iterations 2
smoothSolver:  Solving for k, Initial residual = 0.00766163, Final residual = 0.000611446, No Iterations 2
ExecutionTime = 6.87791 s  ClockTime = 7 s

Time = 76s

smoothSolver:  Solving for Ux, Initial residual = 0, Final residual = 0, No Iterations 0
smoothSolver:  Solving for Uy, Initial residual = 0, Final residual = 0, No Iterations 0
smoothSolver:  Solving for Uz, Initial residual = 0, Final residual = 0, No Iterations 0
DICPCG:  Solving for p, Initial residual = 0, Final residual = 0, No Iterations 0
time step continuity errors : sum local = 0, global = 0, cumulative = 0
smoothSolver:  Solving for omega, Initial residual = 6.05508e-06, Final residual = 4.91405e-07, No Iterations 2
smoothSolver:  Solving for k, Initial residual = 0.00755772, Final residual = 0.000603563, No Iterations 2
ExecutionTime = 6.95927 s  ClockTime = 7 s

Time = 77s

smoothSolver:  Solving for Ux, Initial residual = 0, Final residual = 0, No Iterations 0
smoothSolver:  Solving for Uy, Initial residual = 0, Final residual = 0, No Iterations 0
smoothSolver:  Solving for Uz, Initial residual = 0, Final residual = 0, No Iterations 0
DICPCG:  Solving for p, Initial residual = 0, Final residual = 0, No Iterations 0
time step continuity errors : sum local = 0, global = 0, cumulative = 0
smoothSolver:  Solving for omega, Initial residual = 5.8722e-06, Final residual = 4.76823e-07, No Iterations 2
smoothSolver:  Solving for k, Initial residual = 0.00745675, Final residual = 0.000595893, No Iterations 2
ExecutionTime = 7.04164 s  ClockTime = 8 s

Time = 78s

smoothSolver:  Solving for Ux, Initial residual = 0, Final residual = 0, No Iterations 0
smoothSolver:  Solving for Uy, Initial residual = 0, Final residual = 0, No Iterations 0
smoothSolver:  Solving for Uz, Initial residual = 0, Final residual = 0, No Iterations 0
DICPCG:  Solving for p, Initial residual = 0, Final residual = 0, No Iterations 0
time step continuity errors : sum local = 0, global = 0, cumulative = 0
smoothSolver:  Solving for omega, Initial residual = 5.69704e-06, Final residual = 4.62847e-07, No Iterations 2
smoothSolver:  Solving for k, Initial residual = 0.00735847, Final residual = 0.000588419, No Iterations 2
ExecutionTime = 7.12684 s  ClockTime = 8 s

Time = 79s

smoothSolver:  Solving for Ux, Initial residual = 0, Final residual = 0, No Iterations 0
smoothSolver:  Solving for Uy, Initial residual = 0, Final residual = 0, No Iterations 0
smoothSolver:  Solving for Uz, Initial residual = 0, Final residual = 0, No Iterations 0
DICPCG:  Solving for p, Initial residual = 0, Final residual = 0, No Iterations 0
time step continuity errors : sum local = 0, global = 0, cumulative = 0
smoothSolver:  Solving for omega, Initial residual = 5.52919e-06, Final residual = 4.49444e-07, No Iterations 2
smoothSolver:  Solving for k, Initial residual = 0.0072628, Final residual = 0.000581134, No Iterations 2
ExecutionTime = 7.19856 s  ClockTime = 8 s

Time = 80s

smoothSolver:  Solving for Ux, Initial residual = 0, Final residual = 0, No Iterations 0
smoothSolver:  Solving for Uy, Initial residual = 0, Final residual = 0, No Iterations 0
smoothSolver:  Solving for Uz, Initial residual = 0, Final residual = 0, No Iterations 0
DICPCG:  Solving for p, Initial residual = 0, Final residual = 0, No Iterations 0
time step continuity errors : sum local = 0, global = 0, cumulative = 0
smoothSolver:  Solving for omega, Initial residual = 5.36825e-06, Final residual = 4.36583e-07, No Iterations 2
smoothSolver:  Solving for k, Initial residual = 0.0071698, Final residual = 0.000574045, No Iterations 2
ExecutionTime = 7.27935 s  ClockTime = 8 s

Time = 81s

smoothSolver:  Solving for Ux, Initial residual = 0, Final residual = 0, No Iterations 0
smoothSolver:  Solving for Uy, Initial residual = 0, Final residual = 0, No Iterations 0
smoothSolver:  Solving for Uz, Initial residual = 0, Final residual = 0, No Iterations 0
DICPCG:  Solving for p, Initial residual = 0, Final residual = 0, No Iterations 0
time step continuity errors : sum local = 0, global = 0, cumulative = 0
smoothSolver:  Solving for omega, Initial residual = 5.21385e-06, Final residual = 4.24237e-07, No Iterations 2
smoothSolver:  Solving for k, Initial residual = 0.00707934, Final residual = 0.000567143, No Iterations 2
ExecutionTime = 7.35911 s  ClockTime = 8 s

Time = 82s

smoothSolver:  Solving for Ux, Initial residual = 0, Final residual = 0, No Iterations 0
smoothSolver:  Solving for Uy, Initial residual = 0, Final residual = 0, No Iterations 0
smoothSolver:  Solving for Uz, Initial residual = 0, Final residual = 0, No Iterations 0
DICPCG:  Solving for p, Initial residual = 0, Final residual = 0, No Iterations 0
time step continuity errors : sum local = 0, global = 0, cumulative = 0
smoothSolver:  Solving for omega, Initial residual = 5.06566e-06, Final residual = 4.12378e-07, No Iterations 2
smoothSolver:  Solving for k, Initial residual = 0.00699133, Final residual = 0.00056042, No Iterations 2
ExecutionTime = 7.44139 s  ClockTime = 8 s

Time = 83s

smoothSolver:  Solving for Ux, Initial residual = 0, Final residual = 0, No Iterations 0
smoothSolver:  Solving for Uy, Initial residual = 0, Final residual = 0, No Iterations 0
smoothSolver:  Solving for Uz, Initial residual = 0, Final residual = 0, No Iterations 0
DICPCG:  Solving for p, Initial residual = 0, Final residual = 0, No Iterations 0
time step continuity errors : sum local = 0, global = 0, cumulative = 0
smoothSolver:  Solving for omega, Initial residual = 4.92334e-06, Final residual = 4.00982e-07, No Iterations 2
smoothSolver:  Solving for k, Initial residual = 0.00690567, Final residual = 0.00055387, No Iterations 2
ExecutionTime = 7.53113 s  ClockTime = 8 s

Time = 84s

smoothSolver:  Solving for Ux, Initial residual = 0, Final residual = 0, No Iterations 0
smoothSolver:  Solving for Uy, Initial residual = 0, Final residual = 0, No Iterations 0
smoothSolver:  Solving for Uz, Initial residual = 0, Final residual = 0, No Iterations 0
DICPCG:  Solving for p, Initial residual = 0, Final residual = 0, No Iterations 0
time step continuity errors : sum local = 0, global = 0, cumulative = 0
smoothSolver:  Solving for omega, Initial residual = 4.7866e-06, Final residual = 3.90026e-07, No Iterations 2
smoothSolver:  Solving for k, Initial residual = 0.00682226, Final residual = 0.000547485, No Iterations 2
ExecutionTime = 7.61814 s  ClockTime = 8 s

Time = 85s

smoothSolver:  Solving for Ux, Initial residual = 0, Final residual = 0, No Iterations 0
smoothSolver:  Solving for Uy, Initial residual = 0, Final residual = 0, No Iterations 0
smoothSolver:  Solving for Uz, Initial residual = 0, Final residual = 0, No Iterations 0
DICPCG:  Solving for p, Initial residual = 0, Final residual = 0, No Iterations 0
time step continuity errors : sum local = 0, global = 0, cumulative = 0
smoothSolver:  Solving for omega, Initial residual = 4.65516e-06, Final residual = 3.79488e-07, No Iterations 2
smoothSolver:  Solving for k, Initial residual = 0.00674099, Final residual = 0.000541259, No Iterations 2
ExecutionTime = 7.6917 s  ClockTime = 8 s

Time = 86s

smoothSolver:  Solving for Ux, Initial residual = 0, Final residual = 0, No Iterations 0
smoothSolver:  Solving for Uy, Initial residual = 0, Final residual = 0, No Iterations 0
smoothSolver:  Solving for Uz, Initial residual = 0, Final residual = 0, No Iterations 0
DICPCG:  Solving for p, Initial residual = 0, Final residual = 0, No Iterations 0
time step continuity errors : sum local = 0, global = 0, cumulative = 0
smoothSolver:  Solving for omega, Initial residual = 4.52874e-06, Final residual = 3.69346e-07, No Iterations 2
smoothSolver:  Solving for k, Initial residual = 0.00666176, Final residual = 0.000535183, No Iterations 2
ExecutionTime = 7.77184 s  ClockTime = 8 s

Time = 87s

smoothSolver:  Solving for Ux, Initial residual = 0, Final residual = 0, No Iterations 0
smoothSolver:  Solving for Uy, Initial residual = 0, Final residual = 0, No Iterations 0
smoothSolver:  Solving for Uz, Initial residual = 0, Final residual = 0, No Iterations 0
DICPCG:  Solving for p, Initial residual = 0, Final residual = 0, No Iterations 0
time step continuity errors : sum local = 0, global = 0, cumulative = 0
smoothSolver:  Solving for omega, Initial residual = 4.4071e-06, Final residual = 3.59582e-07, No Iterations 2
smoothSolver:  Solving for k, Initial residual = 0.0065845, Final residual = 0.000529253, No Iterations 2
ExecutionTime = 7.85323 s  ClockTime = 8 s

Time = 88s

smoothSolver:  Solving for Ux, Initial residual = 0, Final residual = 0, No Iterations 0
smoothSolver:  Solving for Uy, Initial residual = 0, Final residual = 0, No Iterations 0
smoothSolver:  Solving for Uz, Initial residual = 0, Final residual = 0, No Iterations 0
DICPCG:  Solving for p, Initial residual = 0, Final residual = 0, No Iterations 0
time step continuity errors : sum local = 0, global = 0, cumulative = 0
smoothSolver:  Solving for omega, Initial residual = 4.29e-06, Final residual = 3.50176e-07, No Iterations 2
smoothSolver:  Solving for k, Initial residual = 0.00650903, Final residual = 0.000523454, No Iterations 2
ExecutionTime = 7.94126 s  ClockTime = 8 s

Time = 89s

smoothSolver:  Solving for Ux, Initial residual = 0, Final residual = 0, No Iterations 0
smoothSolver:  Solving for Uy, Initial residual = 0, Final residual = 0, No Iterations 0
smoothSolver:  Solving for Uz, Initial residual = 0, Final residual = 0, No Iterations 0
DICPCG:  Solving for p, Initial residual = 0, Final residual = 0, No Iterations 0
time step continuity errors : sum local = 0, global = 0, cumulative = 0
smoothSolver:  Solving for omega, Initial residual = 4.17722e-06, Final residual = 3.41113e-07, No Iterations 2
smoothSolver:  Solving for k, Initial residual = 0.00643533, Final residual = 0.000517785, No Iterations 2
ExecutionTime = 8.02051 s  ClockTime = 9 s

Time = 90s

smoothSolver:  Solving for Ux, Initial residual = 0, Final residual = 0, No Iterations 0
smoothSolver:  Solving for Uy, Initial residual = 0, Final residual = 0, No Iterations 0
smoothSolver:  Solving for Uz, Initial residual = 0, Final residual = 0, No Iterations 0
DICPCG:  Solving for p, Initial residual = 0, Final residual = 0, No Iterations 0
time step continuity errors : sum local = 0, global = 0, cumulative = 0
smoothSolver:  Solving for omega, Initial residual = 4.06855e-06, Final residual = 3.32376e-07, No Iterations 2
smoothSolver:  Solving for k, Initial residual = 0.00636342, Final residual = 0.00051225, No Iterations 2
ExecutionTime = 8.10999 s  ClockTime = 9 s

Time = 91s

smoothSolver:  Solving for Ux, Initial residual = 0, Final residual = 0, No Iterations 0
smoothSolver:  Solving for Uy, Initial residual = 0, Final residual = 0, No Iterations 0
smoothSolver:  Solving for Uz, Initial residual = 0, Final residual = 0, No Iterations 0
DICPCG:  Solving for p, Initial residual = 0, Final residual = 0, No Iterations 0
time step continuity errors : sum local = 0, global = 0, cumulative = 0
smoothSolver:  Solving for omega, Initial residual = 3.96381e-06, Final residual = 3.23948e-07, No Iterations 2
smoothSolver:  Solving for k, Initial residual = 0.00629323, Final residual = 0.000506842, No Iterations 2
ExecutionTime = 8.19706 s  ClockTime = 9 s

Time = 92s

smoothSolver:  Solving for Ux, Initial residual = 0, Final residual = 0, No Iterations 0
smoothSolver:  Solving for Uy, Initial residual = 0, Final residual = 0, No Iterations 0
smoothSolver:  Solving for Uz, Initial residual = 0, Final residual = 0, No Iterations 0
DICPCG:  Solving for p, Initial residual = 0, Final residual = 0, No Iterations 0
time step continuity errors : sum local = 0, global = 0, cumulative = 0
smoothSolver:  Solving for omega, Initial residual = 3.86279e-06, Final residual = 3.15817e-07, No Iterations 2
smoothSolver:  Solving for k, Initial residual = 0.00622468, Final residual = 0.000501556, No Iterations 2
ExecutionTime = 8.28614 s  ClockTime = 9 s

Time = 93s

smoothSolver:  Solving for Ux, Initial residual = 0, Final residual = 0, No Iterations 0
smoothSolver:  Solving for Uy, Initial residual = 0, Final residual = 0, No Iterations 0
smoothSolver:  Solving for Uz, Initial residual = 0, Final residual = 0, No Iterations 0
DICPCG:  Solving for p, Initial residual = 0, Final residual = 0, No Iterations 0
time step continuity errors : sum local = 0, global = 0, cumulative = 0
smoothSolver:  Solving for omega, Initial residual = 3.76534e-06, Final residual = 3.07968e-07, No Iterations 2
smoothSolver:  Solving for k, Initial residual = 0.0061576, Final residual = 0.00049638, No Iterations 2
ExecutionTime = 8.37589 s  ClockTime = 9 s

Time = 94s

smoothSolver:  Solving for Ux, Initial residual = 0, Final residual = 0, No Iterations 0
smoothSolver:  Solving for Uy, Initial residual = 0, Final residual = 0, No Iterations 0
smoothSolver:  Solving for Uz, Initial residual = 0, Final residual = 0, No Iterations 0
DICPCG:  Solving for p, Initial residual = 0, Final residual = 0, No Iterations 0
time step continuity errors : sum local = 0, global = 0, cumulative = 0
smoothSolver:  Solving for omega, Initial residual = 3.67128e-06, Final residual = 3.00389e-07, No Iterations 2
smoothSolver:  Solving for k, Initial residual = 0.0060921, Final residual = 0.00049132, No Iterations 2
ExecutionTime = 8.46241 s  ClockTime = 9 s

Time = 95s

smoothSolver:  Solving for Ux, Initial residual = 0, Final residual = 0, No Iterations 0
smoothSolver:  Solving for Uy, Initial residual = 0, Final residual = 0, No Iterations 0
smoothSolver:  Solving for Uz, Initial residual = 0, Final residual = 0, No Iterations 0
DICPCG:  Solving for p, Initial residual = 0, Final residual = 0, No Iterations 0
time step continuity errors : sum local = 0, global = 0, cumulative = 0
smoothSolver:  Solving for omega, Initial residual = 3.58046e-06, Final residual = 2.93067e-07, No Iterations 2
smoothSolver:  Solving for k, Initial residual = 0.00602813, Final residual = 0.000486376, No Iterations 2
ExecutionTime = 8.55214 s  ClockTime = 9 s

Time = 96s

smoothSolver:  Solving for Ux, Initial residual = 0, Final residual = 0, No Iterations 0
smoothSolver:  Solving for Uy, Initial residual = 0, Final residual = 0, No Iterations 0
smoothSolver:  Solving for Uz, Initial residual = 0, Final residual = 0, No Iterations 0
DICPCG:  Solving for p, Initial residual = 0, Final residual = 0, No Iterations 0
time step continuity errors : sum local = 0, global = 0, cumulative = 0
smoothSolver:  Solving for omega, Initial residual = 3.49273e-06, Final residual = 2.8599e-07, No Iterations 2
smoothSolver:  Solving for k, Initial residual = 0.00596566, Final residual = 0.000481543, No Iterations 2
ExecutionTime = 8.63912 s  ClockTime = 9 s

Time = 97s

smoothSolver:  Solving for Ux, Initial residual = 0, Final residual = 0, No Iterations 0
smoothSolver:  Solving for Uy, Initial residual = 0, Final residual = 0, No Iterations 0
smoothSolver:  Solving for Uz, Initial residual = 0, Final residual = 0, No Iterations 0
DICPCG:  Solving for p, Initial residual = 0, Final residual = 0, No Iterations 0
time step continuity errors : sum local = 0, global = 0, cumulative = 0
smoothSolver:  Solving for omega, Initial residual = 3.40796e-06, Final residual = 2.79149e-07, No Iterations 2
smoothSolver:  Solving for k, Initial residual = 0.00590462, Final residual = 0.000476818, No Iterations 2
ExecutionTime = 8.73231 s  ClockTime = 9 s

Time = 98s

smoothSolver:  Solving for Ux, Initial residual = 0, Final residual = 0, No Iterations 0
smoothSolver:  Solving for Uy, Initial residual = 0, Final residual = 0, No Iterations 0
smoothSolver:  Solving for Uz, Initial residual = 0, Final residual = 0, No Iterations 0
DICPCG:  Solving for p, Initial residual = 0, Final residual = 0, No Iterations 0
time step continuity errors : sum local = 0, global = 0, cumulative = 0
smoothSolver:  Solving for omega, Initial residual = 3.32602e-06, Final residual = 2.72533e-07, No Iterations 2
smoothSolver:  Solving for k, Initial residual = 0.00584495, Final residual = 0.000472196, No Iterations 2
ExecutionTime = 8.83072 s  ClockTime = 9 s

Time = 99s

smoothSolver:  Solving for Ux, Initial residual = 0, Final residual = 0, No Iterations 0
smoothSolver:  Solving for Uy, Initial residual = 0, Final residual = 0, No Iterations 0
smoothSolver:  Solving for Uz, Initial residual = 0, Final residual = 0, No Iterations 0
DICPCG:  Solving for p, Initial residual = 0, Final residual = 0, No Iterations 0
time step continuity errors : sum local = 0, global = 0, cumulative = 0
smoothSolver:  Solving for omega, Initial residual = 3.24677e-06, Final residual = 2.66132e-07, No Iterations 2
smoothSolver:  Solving for k, Initial residual = 0.00578663, Final residual = 0.000467675, No Iterations 2
ExecutionTime = 8.92422 s  ClockTime = 9 s

Time = 100s

smoothSolver:  Solving for Ux, Initial residual = 0, Final residual = 0, No Iterations 0
smoothSolver:  Solving for Uy, Initial residual = 0, Final residual = 0, No Iterations 0
smoothSolver:  Solving for Uz, Initial residual = 0, Final residual = 0, No Iterations 0
DICPCG:  Solving for p, Initial residual = 0, Final residual = 0, No Iterations 0
time step continuity errors : sum local = 0, global = 0, cumulative = 0
smoothSolver:  Solving for omega, Initial residual = 3.17012e-06, Final residual = 2.59937e-07, No Iterations 2
smoothSolver:  Solving for k, Initial residual = 0.00572958, Final residual = 0.00046325, No Iterations 2
ExecutionTime = 9.06738 s  ClockTime = 10 s

Time = 101s

smoothSolver:  Solving for Ux, Initial residual = 0, Final residual = 0, No Iterations 0
smoothSolver:  Solving for Uy, Initial residual = 0, Final residual = 0, No Iterations 0
smoothSolver:  Solving for Uz, Initial residual = 0, Final residual = 0, No Iterations 0
DICPCG:  Solving for p, Initial residual = 0, Final residual = 0, No Iterations 0
time step continuity errors : sum local = 0, global = 0, cumulative = 0
smoothSolver:  Solving for omega, Initial residual = 3.09594e-06, Final residual = 2.53939e-07, No Iterations 2
smoothSolver:  Solving for k, Initial residual = 0.00567379, Final residual = 0.000458919, No Iterations 2
ExecutionTime = 9.14535 s  ClockTime = 10 s

Time = 102s

smoothSolver:  Solving for Ux, Initial residual = 0, Final residual = 0, No Iterations 0
smoothSolver:  Solving for Uy, Initial residual = 0, Final residual = 0, No Iterations 0
smoothSolver:  Solving for Uz, Initial residual = 0, Final residual = 0, No Iterations 0
DICPCG:  Solving for p, Initial residual = 0, Final residual = 0, No Iterations 0
time step continuity errors : sum local = 0, global = 0, cumulative = 0
smoothSolver:  Solving for omega, Initial residual = 3.02413e-06, Final residual = 2.48131e-07, No Iterations 2
smoothSolver:  Solving for k, Initial residual = 0.00561919, Final residual = 0.000454678, No Iterations 2
ExecutionTime = 9.21894 s  ClockTime = 10 s

Time = 103s

smoothSolver:  Solving for Ux, Initial residual = 0, Final residual = 0, No Iterations 0
smoothSolver:  Solving for Uy, Initial residual = 0, Final residual = 0, No Iterations 0
smoothSolver:  Solving for Uz, Initial residual = 0, Final residual = 0, No Iterations 0
DICPCG:  Solving for p, Initial residual = 0, Final residual = 0, No Iterations 0
time step continuity errors : sum local = 0, global = 0, cumulative = 0
smoothSolver:  Solving for omega, Initial residual = 2.9546e-06, Final residual = 2.42503e-07, No Iterations 2
smoothSolver:  Solving for k, Initial residual = 0.00556573, Final residual = 0.000450522, No Iterations 2
ExecutionTime = 9.29676 s  ClockTime = 10 s

Time = 104s

smoothSolver:  Solving for Ux, Initial residual = 0, Final residual = 0, No Iterations 0
smoothSolver:  Solving for Uy, Initial residual = 0, Final residual = 0, No Iterations 0
smoothSolver:  Solving for Uz, Initial residual = 0, Final residual = 0, No Iterations 0
DICPCG:  Solving for p, Initial residual = 0, Final residual = 0, No Iterations 0
time step continuity errors : sum local = 0, global = 0, cumulative = 0
smoothSolver:  Solving for omega, Initial residual = 2.88724e-06, Final residual = 2.3705e-07, No Iterations 2
smoothSolver:  Solving for k, Initial residual = 0.00551338, Final residual = 0.000446451, No Iterations 2
ExecutionTime = 9.37818 s  ClockTime = 10 s

Time = 105s

smoothSolver:  Solving for Ux, Initial residual = 0, Final residual = 0, No Iterations 0
smoothSolver:  Solving for Uy, Initial residual = 0, Final residual = 0, No Iterations 0
smoothSolver:  Solving for Uz, Initial residual = 0, Final residual = 0, No Iterations 0
DICPCG:  Solving for p, Initial residual = 0, Final residual = 0, No Iterations 0
time step continuity errors : sum local = 0, global = 0, cumulative = 0
smoothSolver:  Solving for omega, Initial residual = 2.82197e-06, Final residual = 2.31764e-07, No Iterations 2
smoothSolver:  Solving for k, Initial residual = 0.00546208, Final residual = 0.000442458, No Iterations 2
ExecutionTime = 9.46028 s  ClockTime = 10 s

Time = 106s

smoothSolver:  Solving for Ux, Initial residual = 0, Final residual = 0, No Iterations 0
smoothSolver:  Solving for Uy, Initial residual = 0, Final residual = 0, No Iterations 0
smoothSolver:  Solving for Uz, Initial residual = 0, Final residual = 0, No Iterations 0
DICPCG:  Solving for p, Initial residual = 0, Final residual = 0, No Iterations 0
time step continuity errors : sum local = 0, global = 0, cumulative = 0
smoothSolver:  Solving for omega, Initial residual = 2.75871e-06, Final residual = 2.26637e-07, No Iterations 2
smoothSolver:  Solving for k, Initial residual = 0.00541173, Final residual = 0.000438537, No Iterations 2
ExecutionTime = 9.53899 s  ClockTime = 10 s

Time = 107s

smoothSolver:  Solving for Ux, Initial residual = 0, Final residual = 0, No Iterations 0
smoothSolver:  Solving for Uy, Initial residual = 0, Final residual = 0, No Iterations 0
smoothSolver:  Solving for Uz, Initial residual = 0, Final residual = 0, No Iterations 0
DICPCG:  Solving for p, Initial residual = 0, Final residual = 0, No Iterations 0
time step continuity errors : sum local = 0, global = 0, cumulative = 0
smoothSolver:  Solving for omega, Initial residual = 2.69738e-06, Final residual = 2.21665e-07, No Iterations 2
smoothSolver:  Solving for k, Initial residual = 0.00536242, Final residual = 0.000434694, No Iterations 2
ExecutionTime = 9.61616 s  ClockTime = 10 s

Time = 108s

smoothSolver:  Solving for Ux, Initial residual = 0, Final residual = 0, No Iterations 0
smoothSolver:  Solving for Uy, Initial residual = 0, Final residual = 0, No Iterations 0
smoothSolver:  Solving for Uz, Initial residual = 0, Final residual = 0, No Iterations 0
DICPCG:  Solving for p, Initial residual = 0, Final residual = 0, No Iterations 0
time step continuity errors : sum local = 0, global = 0, cumulative = 0
smoothSolver:  Solving for omega, Initial residual = 2.63789e-06, Final residual = 2.16841e-07, No Iterations 2
smoothSolver:  Solving for k, Initial residual = 0.00531411, Final residual = 0.000430927, No Iterations 2
ExecutionTime = 9.69384 s  ClockTime = 10 s

Time = 109s

smoothSolver:  Solving for Ux, Initial residual = 0, Final residual = 0, No Iterations 0
smoothSolver:  Solving for Uy, Initial residual = 0, Final residual = 0, No Iterations 0
smoothSolver:  Solving for Uz, Initial residual = 0, Final residual = 0, No Iterations 0
DICPCG:  Solving for p, Initial residual = 0, Final residual = 0, No Iterations 0
time step continuity errors : sum local = 0, global = 0, cumulative = 0
smoothSolver:  Solving for omega, Initial residual = 2.58018e-06, Final residual = 2.12158e-07, No Iterations 2
smoothSolver:  Solving for k, Initial residual = 0.00526676, Final residual = 0.000427233, No Iterations 2
ExecutionTime = 9.77184 s  ClockTime = 10 s

Time = 110s

smoothSolver:  Solving for Ux, Initial residual = 0, Final residual = 0, No Iterations 0
smoothSolver:  Solving for Uy, Initial residual = 0, Final residual = 0, No Iterations 0
smoothSolver:  Solving for Uz, Initial residual = 0, Final residual = 0, No Iterations 0
DICPCG:  Solving for p, Initial residual = 0, Final residual = 0, No Iterations 0
time step continuity errors : sum local = 0, global = 0, cumulative = 0
smoothSolver:  Solving for omega, Initial residual = 2.52418e-06, Final residual = 2.07613e-07, No Iterations 2
smoothSolver:  Solving for k, Initial residual = 0.0052203, Final residual = 0.000423606, No Iterations 2
ExecutionTime = 9.85873 s  ClockTime = 10 s

Time = 111s

smoothSolver:  Solving for Ux, Initial residual = 0, Final residual = 0, No Iterations 0
smoothSolver:  Solving for Uy, Initial residual = 0, Final residual = 0, No Iterations 0
smoothSolver:  Solving for Uz, Initial residual = 0, Final residual = 0, No Iterations 0
DICPCG:  Solving for p, Initial residual = 0, Final residual = 0, No Iterations 0
time step continuity errors : sum local = 0, global = 0, cumulative = 0
smoothSolver:  Solving for omega, Initial residual = 2.46983e-06, Final residual = 2.03199e-07, No Iterations 2
smoothSolver:  Solving for k, Initial residual = 0.00517472, Final residual = 0.000420045, No Iterations 2
ExecutionTime = 9.94019 s  ClockTime = 10 s

Time = 112s

smoothSolver:  Solving for Ux, Initial residual = 0, Final residual = 0, No Iterations 0
smoothSolver:  Solving for Uy, Initial residual = 0, Final residual = 0, No Iterations 0
smoothSolver:  Solving for Uz, Initial residual = 0, Final residual = 0, No Iterations 0
DICPCG:  Solving for p, Initial residual = 0, Final residual = 0, No Iterations 0
time step continuity errors : sum local = 0, global = 0, cumulative = 0
smoothSolver:  Solving for omega, Initial residual = 2.41705e-06, Final residual = 1.98912e-07, No Iterations 2
smoothSolver:  Solving for k, Initial residual = 0.00513006, Final residual = 0.000416555, No Iterations 2
ExecutionTime = 10.0204 s  ClockTime = 11 s

Time = 113s

smoothSolver:  Solving for Ux, Initial residual = 0, Final residual = 0, No Iterations 0
smoothSolver:  Solving for Uy, Initial residual = 0, Final residual = 0, No Iterations 0
smoothSolver:  Solving for Uz, Initial residual = 0, Final residual = 0, No Iterations 0
DICPCG:  Solving for p, Initial residual = 0, Final residual = 0, No Iterations 0
time step continuity errors : sum local = 0, global = 0, cumulative = 0
smoothSolver:  Solving for omega, Initial residual = 2.36579e-06, Final residual = 1.94747e-07, No Iterations 2
[...]
DICPCG:  Solving for p, Initial residual = 0, Final residual = 0, No Iterations 0
time step continuity errors : sum local = 0, global = 0, cumulative = 0
smoothSolver:  Solving for omega, Initial residual = 2.18641e-07, Final residual = 1.77927e-08, No Iterations 2
smoothSolver:  Solving for k, Initial residual = 0.00250349, Final residual = 0.000208063, No Iterations 2
ExecutionTime = 23.9292 s  ClockTime = 24 s

Time = 273s

smoothSolver:  Solving for Ux, Initial residual = 0, Final residual = 0, No Iterations 0
smoothSolver:  Solving for Uy, Initial residual = 0, Final residual = 0, No Iterations 0
smoothSolver:  Solving for Uz, Initial residual = 0, Final residual = 0, No Iterations 0
DICPCG:  Solving for p, Initial residual = 0, Final residual = 0, No Iterations 0
time step continuity errors : sum local = 0, global = 0, cumulative = 0
smoothSolver:  Solving for omega, Initial residual = 2.19642e-07, Final residual = 1.75978e-08, No Iterations 2
smoothSolver:  Solving for k, Initial residual = 0.00249823, Final residual = 0.000207639, No Iterations 2
ExecutionTime = 24.0264 s  ClockTime = 25 s

Time = 274s

smoothSolver:  Solving for Ux, Initial residual = 0, Final residual = 0, No Iterations 0
smoothSolver:  Solving for Uy, Initial residual = 0, Final residual = 0, No Iterations 0
smoothSolver:  Solving for Uz, Initial residual = 0, Final residual = 0, No Iterations 0
DICPCG:  Solving for p, Initial residual = 0, Final residual = 0, No Iterations 0
time step continuity errors : sum local = 0, global = 0, cumulative = 0
smoothSolver:  Solving for omega, Initial residual = 2.2214e-07, Final residual = 1.74079e-08, No Iterations 2
smoothSolver:  Solving for k, Initial residual = 0.00249302, Final residual = 0.00020722, No Iterations 2
ExecutionTime = 24.1048 s  ClockTime = 25 s

Time = 275s

smoothSolver:  Solving for Ux, Initial residual = 0, Final residual = 0, No Iterations 0
smoothSolver:  Solving for Uy, Initial residual = 0, Final residual = 0, No Iterations 0
smoothSolver:  Solving for Uz, Initial residual = 0, Final residual = 0, No Iterations 0
DICPCG:  Solving for p, Initial residual = 0, Final residual = 0, No Iterations 0
time step continuity errors : sum local = 0, global = 0, cumulative = 0
smoothSolver:  Solving for omega, Initial residual = 2.26638e-07, Final residual = 1.72236e-08, No Iterations 2
smoothSolver:  Solving for k, Initial residual = 0.00248787, Final residual = 0.000206805, No Iterations 2
ExecutionTime = 24.1874 s  ClockTime = 25 s

Time = 276s

smoothSolver:  Solving for Ux, Initial residual = 0, Final residual = 0, No Iterations 0
smoothSolver:  Solving for Uy, Initial residual = 0, Final residual = 0, No Iterations 0
smoothSolver:  Solving for Uz, Initial residual = 0, Final residual = 0, No Iterations 0
DICPCG:  Solving for p, Initial residual = 0, Final residual = 0, No Iterations 0
time step continuity errors : sum local = 0, global = 0, cumulative = 0
smoothSolver:  Solving for omega, Initial residual = 2.33761e-07, Final residual = 1.70461e-08, No Iterations 2
smoothSolver:  Solving for k, Initial residual = 0.00248277, Final residual = 0.000206395, No Iterations 2
ExecutionTime = 24.2617 s  ClockTime = 25 s

Time = 277s

smoothSolver:  Solving for Ux, Initial residual = 0, Final residual = 0, No Iterations 0
smoothSolver:  Solving for Uy, Initial residual = 0, Final residual = 0, No Iterations 0
smoothSolver:  Solving for Uz, Initial residual = 0, Final residual = 0, No Iterations 0
DICPCG:  Solving for p, Initial residual = 0, Final residual = 0, No Iterations 0
time step continuity errors : sum local = 0, global = 0, cumulative = 0
smoothSolver:  Solving for omega, Initial residual = 2.4427e-07, Final residual = 1.68763e-08, No Iterations 2
smoothSolver:  Solving for k, Initial residual = 0.00247772, Final residual = 0.000205988, No Iterations 2
ExecutionTime = 24.3466 s  ClockTime = 25 s

Time = 278s

smoothSolver:  Solving for Ux, Initial residual = 0, Final residual = 0, No Iterations 0
smoothSolver:  Solving for Uy, Initial residual = 0, Final residual = 0, No Iterations 0
smoothSolver:  Solving for Uz, Initial residual = 0, Final residual = 0, No Iterations 0
DICPCG:  Solving for p, Initial residual = 0, Final residual = 0, No Iterations 0
time step continuity errors : sum local = 0, global = 0, cumulative = 0
smoothSolver:  Solving for omega, Initial residual = 2.59077e-07, Final residual = 1.67158e-08, No Iterations 2
smoothSolver:  Solving for k, Initial residual = 0.00247273, Final residual = 0.000205586, No Iterations 2
ExecutionTime = 24.4319 s  ClockTime = 25 s

Time = 279s

smoothSolver:  Solving for Ux, Initial residual = 0, Final residual = 0, No Iterations 0
smoothSolver:  Solving for Uy, Initial residual = 0, Final residual = 0, No Iterations 0
smoothSolver:  Solving for Uz, Initial residual = 0, Final residual = 0, No Iterations 0
DICPCG:  Solving for p, Initial residual = 0, Final residual = 0, No Iterations 0
time step continuity errors : sum local = 0, global = 0, cumulative = 0
smoothSolver:  Solving for omega, Initial residual = 2.79247e-07, Final residual = 1.65663e-08, No Iterations 2
smoothSolver:  Solving for k, Initial residual = 0.00246778, Final residual = 0.000205188, No Iterations 2
ExecutionTime = 24.5327 s  ClockTime = 25 s

Time = 280s

smoothSolver:  Solving for Ux, Initial residual = 0, Final residual = 0, No Iterations 0
smoothSolver:  Solving for Uy, Initial residual = 0, Final residual = 0, No Iterations 0
smoothSolver:  Solving for Uz, Initial residual = 0, Final residual = 0, No Iterations 0
DICPCG:  Solving for p, Initial residual = 0, Final residual = 0, No Iterations 0
time step continuity errors : sum local = 0, global = 0, cumulative = 0
smoothSolver:  Solving for omega, Initial residual = 3.06004e-07, Final residual = 1.64298e-08, No Iterations 2
smoothSolver:  Solving for k, Initial residual = 0.00246289, Final residual = 0.000204794, No Iterations 2
ExecutionTime = 24.6408 s  ClockTime = 25 s

Time = 281s

smoothSolver:  Solving for Ux, Initial residual = 0, Final residual = 0, No Iterations 0
smoothSolver:  Solving for Uy, Initial residual = 0, Final residual = 0, No Iterations 0
smoothSolver:  Solving for Uz, Initial residual = 0, Final residual = 0, No Iterations 0
DICPCG:  Solving for p, Initial residual = 0, Final residual = 0, No Iterations 0
time step continuity errors : sum local = 0, global = 0, cumulative = 0
smoothSolver:  Solving for omega, Initial residual = 3.40727e-07, Final residual = 1.63085e-08, No Iterations 2
smoothSolver:  Solving for k, Initial residual = 0.00245805, Final residual = 0.000204405, No Iterations 2
ExecutionTime = 24.7333 s  ClockTime = 25 s

Time = 282s

smoothSolver:  Solving for Ux, Initial residual = 0, Final residual = 0, No Iterations 0
smoothSolver:  Solving for Uy, Initial residual = 0, Final residual = 0, No Iterations 0
smoothSolver:  Solving for Uz, Initial residual = 0, Final residual = 0, No Iterations 0
DICPCG:  Solving for p, Initial residual = 0, Final residual = 0, No Iterations 0
time step continuity errors : sum local = 0, global = 0, cumulative = 0
smoothSolver:  Solving for omega, Initial residual = 3.84933e-07, Final residual = 1.6205e-08, No Iterations 2
smoothSolver:  Solving for k, Initial residual = 0.00245327, Final residual = 0.000204019, No Iterations 2
ExecutionTime = 24.8269 s  ClockTime = 25 s

Time = 283s

smoothSolver:  Solving for Ux, Initial residual = 0, Final residual = 0, No Iterations 0
smoothSolver:  Solving for Uy, Initial residual = 0, Final residual = 0, No Iterations 0
smoothSolver:  Solving for Uz, Initial residual = 0, Final residual = 0, No Iterations 0
DICPCG:  Solving for p, Initial residual = 0, Final residual = 0, No Iterations 0
time step continuity errors : sum local = 0, global = 0, cumulative = 0
smoothSolver:  Solving for omega, Initial residual = 4.40261e-07, Final residual = 1.61222e-08, No Iterations 2
smoothSolver:  Solving for k, Initial residual = 0.00244853, Final residual = 0.000203637, No Iterations 2
ExecutionTime = 24.9214 s  ClockTime = 25 s

Time = 284s

smoothSolver:  Solving for Ux, Initial residual = 0, Final residual = 0, No Iterations 0
smoothSolver:  Solving for Uy, Initial residual = 0, Final residual = 0, No Iterations 0
smoothSolver:  Solving for Uz, Initial residual = 0, Final residual = 0, No Iterations 0
DICPCG:  Solving for p, Initial residual = 0, Final residual = 0, No Iterations 0
time step continuity errors : sum local = 0, global = 0, cumulative = 0
smoothSolver:  Solving for omega, Initial residual = 5.0844e-07, Final residual = 1.60629e-08, No Iterations 2
smoothSolver:  Solving for k, Initial residual = 0.00244384, Final residual = 0.000203259, No Iterations 2
ExecutionTime = 25.0156 s  ClockTime = 26 s

Time = 285s

smoothSolver:  Solving for Ux, Initial residual = 0, Final residual = 0, No Iterations 0
smoothSolver:  Solving for Uy, Initial residual = 0, Final residual = 0, No Iterations 0
smoothSolver:  Solving for Uz, Initial residual = 0, Final residual = 0, No Iterations 0
DICPCG:  Solving for p, Initial residual = 0, Final residual = 0, No Iterations 0
time step continuity errors : sum local = 0, global = 0, cumulative = 0
smoothSolver:  Solving for omega, Initial residual = 5.91252e-07, Final residual = 1.60305e-08, No Iterations 2
smoothSolver:  Solving for k, Initial residual = 0.00243919, Final residual = 0.000202886, No Iterations 2
ExecutionTime = 25.1093 s  ClockTime = 26 s

Time = 286s

smoothSolver:  Solving for Ux, Initial residual = 0, Final residual = 0, No Iterations 0
smoothSolver:  Solving for Uy, Initial residual = 0, Final residual = 0, No Iterations 0
smoothSolver:  Solving for Uz, Initial residual = 0, Final residual = 0, No Iterations 0
DICPCG:  Solving for p, Initial residual = 0, Final residual = 0, No Iterations 0
time step continuity errors : sum local = 0, global = 0, cumulative = 0
smoothSolver:  Solving for omega, Initial residual = 6.90485e-07, Final residual = 6.14528e-08, No Iterations 1
smoothSolver:  Solving for k, Initial residual = 0.00243523, Final residual = 0.000202568, No Iterations 2
ExecutionTime = 25.2046 s  ClockTime = 26 s

Time = 287s

smoothSolver:  Solving for Ux, Initial residual = 0, Final residual = 0, No Iterations 0
smoothSolver:  Solving for Uy, Initial residual = 0, Final residual = 0, No Iterations 0
smoothSolver:  Solving for Uz, Initial residual = 0, Final residual = 0, No Iterations 0
DICPCG:  Solving for p, Initial residual = 0, Final residual = 0, No Iterations 0
time step continuity errors : sum local = 0, global = 0, cumulative = 0
smoothSolver:  Solving for omega, Initial residual = 8.15088e-07, Final residual = 6.3578e-08, No Iterations 1
smoothSolver:  Solving for k, Initial residual = 0.00243131, Final residual = 0.000202253, No Iterations 2
ExecutionTime = 25.2915 s  ClockTime = 26 s

Time = 288s

smoothSolver:  Solving for Ux, Initial residual = 0, Final residual = 0, No Iterations 0
smoothSolver:  Solving for Uy, Initial residual = 0, Final residual = 0, No Iterations 0
smoothSolver:  Solving for Uz, Initial residual = 0, Final residual = 0, No Iterations 0
DICPCG:  Solving for p, Initial residual = 0, Final residual = 0, No Iterations 0
time step continuity errors : sum local = 0, global = 0, cumulative = 0
smoothSolver:  Solving for omega, Initial residual = 9.553e-07, Final residual = 6.58826e-08, No Iterations 1
smoothSolver:  Solving for k, Initial residual = 0.00242743, Final residual = 0.000201942, No Iterations 2
ExecutionTime = 25.3812 s  ClockTime = 26 s

Time = 289s

smoothSolver:  Solving for Ux, Initial residual = 0, Final residual = 0, No Iterations 0
smoothSolver:  Solving for Uy, Initial residual = 0, Final residual = 0, No Iterations 0
smoothSolver:  Solving for Uz, Initial residual = 0, Final residual = 0, No Iterations 0
DICPCG:  Solving for p, Initial residual = 0, Final residual = 0, No Iterations 0
time step continuity errors : sum local = 0, global = 0, cumulative = 0
smoothSolver:  Solving for omega, Initial residual = 1.11682e-06, Final residual = 6.85619e-08, No Iterations 1
smoothSolver:  Solving for k, Initial residual = 0.00242359, Final residual = 0.000201634, No Iterations 2
ExecutionTime = 25.4728 s  ClockTime = 26 s

Time = 290s

smoothSolver:  Solving for Ux, Initial residual = 0, Final residual = 0, No Iterations 0
smoothSolver:  Solving for Uy, Initial residual = 0, Final residual = 0, No Iterations 0
smoothSolver:  Solving for Uz, Initial residual = 0, Final residual = 0, No Iterations 0
DICPCG:  Solving for p, Initial residual = 0, Final residual = 0, No Iterations 0
time step continuity errors : sum local = 0, global = 0, cumulative = 0
smoothSolver:  Solving for omega, Initial residual = 1.30102e-06, Final residual = 7.16736e-08, No Iterations 1
smoothSolver:  Solving for k, Initial residual = 0.00241979, Final residual = 0.000201329, No Iterations 2
ExecutionTime = 25.5562 s  ClockTime = 26 s

Time = 291s

smoothSolver:  Solving for Ux, Initial residual = 0, Final residual = 0, No Iterations 0
smoothSolver:  Solving for Uy, Initial residual = 0, Final residual = 0, No Iterations 0
smoothSolver:  Solving for Uz, Initial residual = 0, Final residual = 0, No Iterations 0
DICPCG:  Solving for p, Initial residual = 0, Final residual = 0, No Iterations 0
time step continuity errors : sum local = 0, global = 0, cumulative = 0
smoothSolver:  Solving for omega, Initial residual = 1.50901e-06, Final residual = 7.52512e-08, No Iterations 1
smoothSolver:  Solving for k, Initial residual = 0.00241602, Final residual = 0.000201026, No Iterations 2
ExecutionTime = 25.6656 s  ClockTime = 26 s

Time = 292s

smoothSolver:  Solving for Ux, Initial residual = 0, Final residual = 0, No Iterations 0
smoothSolver:  Solving for Uy, Initial residual = 0, Final residual = 0, No Iterations 0
smoothSolver:  Solving for Uz, Initial residual = 0, Final residual = 0, No Iterations 0
DICPCG:  Solving for p, Initial residual = 0, Final residual = 0, No Iterations 0
time step continuity errors : sum local = 0, global = 0, cumulative = 0
smoothSolver:  Solving for omega, Initial residual = 1.74142e-06, Final residual = 7.93149e-08, No Iterations 1
smoothSolver:  Solving for k, Initial residual = 0.00241229, Final residual = 0.000200727, No Iterations 2
ExecutionTime = 25.7477 s  ClockTime = 26 s

Time = 293s

smoothSolver:  Solving for Ux, Initial residual = 0, Final residual = 0, No Iterations 0
smoothSolver:  Solving for Uy, Initial residual = 0, Final residual = 0, No Iterations 0
smoothSolver:  Solving for Uz, Initial residual = 0, Final residual = 0, No Iterations 0
DICPCG:  Solving for p, Initial residual = 0, Final residual = 0, No Iterations 0
time step continuity errors : sum local = 0, global = 0, cumulative = 0
smoothSolver:  Solving for omega, Initial residual = 1.99849e-06, Final residual = 8.38756e-08, No Iterations 1
smoothSolver:  Solving for k, Initial residual = 0.0024086, Final residual = 0.00020043, No Iterations 2
ExecutionTime = 25.8274 s  ClockTime = 26 s

Time = 294s

smoothSolver:  Solving for Ux, Initial residual = 0, Final residual = 0, No Iterations 0
smoothSolver:  Solving for Uy, Initial residual = 0, Final residual = 0, No Iterations 0
smoothSolver:  Solving for Uz, Initial residual = 0, Final residual = 0, No Iterations 0
DICPCG:  Solving for p, Initial residual = 0, Final residual = 0, No Iterations 0
time step continuity errors : sum local = 0, global = 0, cumulative = 0
smoothSolver:  Solving for omega, Initial residual = 2.27999e-06, Final residual = 8.89344e-08, No Iterations 1
smoothSolver:  Solving for k, Initial residual = 0.00240494, Final residual = 0.000200137, No Iterations 2
ExecutionTime = 25.9065 s  ClockTime = 26 s

Time = 295s

smoothSolver:  Solving for Ux, Initial residual = 0, Final residual = 0, No Iterations 0
smoothSolver:  Solving for Uy, Initial residual = 0, Final residual = 0, No Iterations 0
smoothSolver:  Solving for Uz, Initial residual = 0, Final residual = 0, No Iterations 0
DICPCG:  Solving for p, Initial residual = 0, Final residual = 0, No Iterations 0
time step continuity errors : sum local = 0, global = 0, cumulative = 0
smoothSolver:  Solving for omega, Initial residual = 2.58524e-06, Final residual = 9.44834e-08, No Iterations 1
smoothSolver:  Solving for k, Initial residual = 0.00240132, Final residual = 0.000199846, No Iterations 2
ExecutionTime = 25.9858 s  ClockTime = 26 s

Time = 296s

smoothSolver:  Solving for Ux, Initial residual = 0, Final residual = 0, No Iterations 0
smoothSolver:  Solving for Uy, Initial residual = 0, Final residual = 0, No Iterations 0
smoothSolver:  Solving for Uz, Initial residual = 0, Final residual = 0, No Iterations 0
DICPCG:  Solving for p, Initial residual = 0, Final residual = 0, No Iterations 0
time step continuity errors : sum local = 0, global = 0, cumulative = 0
smoothSolver:  Solving for omega, Initial residual = 2.91307e-06, Final residual = 1.00505e-07, No Iterations 1
smoothSolver:  Solving for k, Initial residual = 0.00239774, Final residual = 0.000199559, No Iterations 2
ExecutionTime = 26.0632 s  ClockTime = 27 s

Time = 297s

smoothSolver:  Solving for Ux, Initial residual = 0, Final residual = 0, No Iterations 0
smoothSolver:  Solving for Uy, Initial residual = 0, Final residual = 0, No Iterations 0
smoothSolver:  Solving for Uz, Initial residual = 0, Final residual = 0, No Iterations 0
DICPCG:  Solving for p, Initial residual = 0, Final residual = 0, No Iterations 0
time step continuity errors : sum local = 0, global = 0, cumulative = 0
smoothSolver:  Solving for omega, Initial residual = 3.26184e-06, Final residual = 1.06971e-07, No Iterations 1
smoothSolver:  Solving for k, Initial residual = 0.00239419, Final residual = 0.000199274, No Iterations 2
ExecutionTime = 26.1432 s  ClockTime = 27 s

Time = 298s

smoothSolver:  Solving for Ux, Initial residual = 0, Final residual = 0, No Iterations 0
smoothSolver:  Solving for Uy, Initial residual = 0, Final residual = 0, No Iterations 0
smoothSolver:  Solving for Uz, Initial residual = 0, Final residual = 0, No Iterations 0
DICPCG:  Solving for p, Initial residual = 0, Final residual = 0, No Iterations 0
time step continuity errors : sum local = 0, global = 0, cumulative = 0
smoothSolver:  Solving for omega, Initial residual = 3.62948e-06, Final residual = 1.13847e-07, No Iterations 1
smoothSolver:  Solving for k, Initial residual = 0.00239068, Final residual = 0.000198992, No Iterations 2
ExecutionTime = 26.222 s  ClockTime = 27 s

Time = 299s

smoothSolver:  Solving for Ux, Initial residual = 0, Final residual = 0, No Iterations 0
smoothSolver:  Solving for Uy, Initial residual = 0, Final residual = 0, No Iterations 0
smoothSolver:  Solving for Uz, Initial residual = 0, Final residual = 0, No Iterations 0
DICPCG:  Solving for p, Initial residual = 0, Final residual = 0, No Iterations 0
time step continuity errors : sum local = 0, global = 0, cumulative = 0
smoothSolver:  Solving for omega, Initial residual = 4.01353e-06, Final residual = 1.21086e-07, No Iterations 1
smoothSolver:  Solving for k, Initial residual = 0.0023872, Final residual = 0.000198713, No Iterations 2
ExecutionTime = 26.2982 s  ClockTime = 27 s

Time = 300s

smoothSolver:  Solving for Ux, Initial residual = 0, Final residual = 0, No Iterations 0
smoothSolver:  Solving for Uy, Initial residual = 0, Final residual = 0, No Iterations 0
smoothSolver:  Solving for Uz, Initial residual = 0, Final residual = 0, No Iterations 0
DICPCG:  Solving for p, Initial residual = 0, Final residual = 0, No Iterations 0
time step continuity errors : sum local = 0, global = 0, cumulative = 0
smoothSolver:  Solving for omega, Initial residual = 4.41114e-06, Final residual = 1.28637e-07, No Iterations 1
smoothSolver:  Solving for k, Initial residual = 0.00238376, Final residual = 0.000198437, No Iterations 2
ExecutionTime = 26.4342 s  ClockTime = 27 s

End

