/*---------------------------------------------------------------------------*\
  =========                 |
  \\      /  F ield         | OpenFOAM: The Open Source CFD Toolbox
   \\    /   O peration     | Website:  https://openfoam.org
    \\  /    A nd           | Version:  13
     \\/     M anipulation  |
\*---------------------------------------------------------------------------*/
Build  : 13-cde978a97c93
Exec   : checkMesh -allGeometry -allTopology
Date   : Feb 25 2026
Time   : 15:59:40
Host   : "JOO-DESKTOP"
PID    : 33797
I/O    : uncollated
Case   : /home/joo/OpenFOAM/joo-13/run/trackB_propellerIGE_v13/cases/baseCase
nProcs : 1
sigFpe : Enabling floating point exception trapping (FOAM_SIGFPE).
fileModificationChecking : Monitoring run-time modified files using timeStampMaster (fileModificationSkew 10)
allowSystemOperations : Allowing user-supplied system call operations

// * * * * * * * * * * * * * * * * * * * * * * * * * * * * * * * * * * * * * //
Create time

Create mesh for time = 0

Enabling all (cell, face, edge, point) topology checks.

Enabling all geometry checks.

Time = 0s

Mesh stats
    points:           82369
    faces:            235840
    internal faces:   224960
    cells:            76800
    faces per cell:   6
    boundary patches: 3
    point zones:      0
    face zones:       0
    cell zones:       0

Overall number of cells of each type:
    hexahedra:     76800
    prisms:        0
    wedges:        0
    pyramids:      0
    tet wedges:    0
    tetrahedra:    0
    polyhedra:     0

Checking topology...
    Boundary definition OK.
    Cell to face addressing OK.
    Point usage OK.
    Upper triangular ordering OK.
    Face vertices OK.
    Topological cell zip-up check OK.
    Face-face connectivity OK.
    Number of regions: 1 (OK).

Checking patch topology for multiply connected surfaces...
    Patch               Faces    Points   Surface topology                  
    ground              1600     1681     ok (non-closed singly connected)  
    top                 1600     1681     ok (non-closed singly connected)  
    farField            7680     7840     ok (non-closed singly connected)  

Checking geometry...
    Overall domain bounding box (-1 -1 0) (1 1 1.2)
    Patch bounding boxes
        ground               (-1 -1 0) (1 1 0)
        top                  (-1 -1 1.2) (1 1 1.2)
        farField             (-1 -1 0) (1 1 1.2)
    Mesh has 3 geometric (non-empty/wedge) directions (1 1 1)
    Mesh has 3 solution (non-empty) directions (1 1 1)
    Max cell openness = 1.73472e-16 OK.
    Max aspect ratio = 2 OK.
    Minimum face area = 0.00125. Maximum face area = 0.0025.  Face area magnitudes OK.
    Min volume = 6.25e-05. Max volume = 6.25e-05.  Total volume = 4.8.  Cell volumes OK.
    Mesh non-orthogonality Max: 0 average: 0
    Non-orthogonality check OK.
    Face pyramids OK.
    Max skewness = 4.44089e-14 OK.
    Coupled point location match (average 0) OK.
    Face tets OK.
    Min/max edge length = 0.025 0.05 OK.
    All angles in faces OK.
    Face flatness (1 = flat, 0 = butterfly) : min = 1  average = 1
    All face flatness OK.
    Cell determinant (wellposedness) : minimum: 0.702332 average: 5.33087
    Cell determinant check OK.
    Concave cell check OK.
    Face interpolation weight : minimum: 0.5 average: 0.5
    Face interpolation weight check OK.
    Face volume ratio : minimum: 1 average: 1
    Face volume ratio check OK.

Mesh OK.

End

