/*---------------------------------------------------------------------------*\
  =========                 |
  \\      /  F ield         | OpenFOAM: The Open Source CFD Toolbox
   \\    /   O peration     | Website:  https://openfoam.org
    \\  /    A nd           | Version:  13
     \\/     M anipulation  |
\*---------------------------------------------------------------------------*/
Build  : 13-cde978a97c93
Exec   : foamRun
Date   : Feb 26 2026
Time   : 13:48:36
Host   : "JOO-DESKTOP"
PID    : 6054
I/O    : uncollated
Case   : /home/joo/OpenFOAM/joo-13/run/trackB_propellerIGE_v13/cases/baseCase
nProcs : 1
sigFpe : Enabling floating point exception trapping (FOAM_SIGFPE).
fileModificationChecking : Monitoring run-time modified files using timeStampMaster (fileModificationSkew 10)
allowSystemOperations : Allowing user-supplied system call operations

// * * * * * * * * * * * * * * * * * * * * * * * * * * * * * * * * * * * * * //
Create time

Create mesh for time = 0

Selecting solver incompressibleFluid
Selecting viscosity model constant
Selecting turbulence model type RAS
    Selecting RAS turbulence model kOmegaSST
No MRF models present

Selecting patchDistMethod meshWave
Creating fvModels from "constant/fvModels"

Selecting finite volume model type propellerDisk
    Name: diskSource

SIMPLE: Convergence criteria found
        p: tolerance 0.0001
        U: tolerance 1e-05
        k: tolerance 1e-05
        omega: tolerance 1e-05


SIMPLE: Operating solver in steady-state mode with 1 outer corrector
SIMPLE: Operating solver in SIMPLE mode



Starting time loop

Reading set description:
    line

Time = 1s

smoothSolver:  Solving for Ux, Initial residual = 1, Final residual = 0.011264, No Iterations 2
smoothSolver:  Solving for Uy, Initial residual = 1, Final residual = 0.011264, No Iterations 2
smoothSolver:  Solving for Uz, Initial residual = 1, Final residual = 0.0116422, No Iterations 2
DICPCG:  Solving for p, Initial residual = 1, Final residual = 0.0966703, No Iterations 28
time step continuity errors : sum local = 24.5088, global = -2.81805, cumulative = -2.81805
smoothSolver:  Solving for omega, Initial residual = 0.0347356, Final residual = 0.000918589, No Iterations 2
smoothSolver:  Solving for k, Initial residual = 1, Final residual = 0.0964171, No Iterations 1
ExecutionTime = 0.817124 s  ClockTime = 1 s

Time = 2s

smoothSolver:  Solving for Ux, Initial residual = 0.42766, Final residual = 0.00705812, No Iterations 2
smoothSolver:  Solving for Uy, Initial residual = 0.427634, Final residual = 0.0070101, No Iterations 2
smoothSolver:  Solving for Uz, Initial residual = 0.436078, Final residual = 0.00704257, No Iterations 2
DICPCG:  Solving for p, Initial residual = 0.998978, Final residual = 0.0875117, No Iterations 39
time step continuity errors : sum local = 18.952, global = -0.824537, cumulative = -3.64259
smoothSolver:  Solving for omega, Initial residual = 0.030912, Final residual = 0.000847896, No Iterations 2
smoothSolver:  Solving for k, Initial residual = 0.397155, Final residual = 0.0391721, No Iterations 1
ExecutionTime = 0.998502 s  ClockTime = 2 s

Time = 3s

smoothSolver:  Solving for Ux, Initial residual = 0.305274, Final residual = 0.00731602, No Iterations 2
smoothSolver:  Solving for Uy, Initial residual = 0.305013, Final residual = 0.00687557, No Iterations 2
smoothSolver:  Solving for Uz, Initial residual = 0.299111, Final residual = 0.005952, No Iterations 2
DICPCG:  Solving for p, Initial residual = 0.226601, Final residual = 0.0215635, No Iterations 31
time step continuity errors : sum local = 14.8929, global = -0.0810793, cumulative = -3.72367
smoothSolver:  Solving for omega, Initial residual = 0.0258023, Final residual = 0.000671471, No Iterations 2
smoothSolver:  Solving for k, Initial residual = 0.311812, Final residual = 0.029141, No Iterations 1
ExecutionTime = 1.13628 s  ClockTime = 2 s

Time = 4s

smoothSolver:  Solving for Ux, Initial residual = 0.232735, Final residual = 0.0064703, No Iterations 2
smoothSolver:  Solving for Uy, Initial residual = 0.232786, Final residual = 0.00620964, No Iterations 2
smoothSolver:  Solving for Uz, Initial residual = 0.246213, Final residual = 0.00500559, No Iterations 2
DICPCG:  Solving for p, Initial residual = 0.194844, Final residual = 0.0155846, No Iterations 30
time step continuity errors : sum local = 18.4116, global = 1.38484, cumulative = -2.33883
smoothSolver:  Solving for omega, Initial residual = 0.0262069, Final residual = 0.000641647, No Iterations 2
smoothSolver:  Solving for k, Initial residual = 0.30301, Final residual = 0.0293275, No Iterations 1
ExecutionTime = 1.268 s  ClockTime = 2 s

Time = 5s

smoothSolver:  Solving for Ux, Initial residual = 0.141839, Final residual = 0.0040425, No Iterations 2
smoothSolver:  Solving for Uy, Initial residual = 0.142199, Final residual = 0.00391818, No Iterations 2
smoothSolver:  Solving for Uz, Initial residual = 0.128329, Final residual = 0.00290221, No Iterations 2
DICPCG:  Solving for p, Initial residual = 0.43124, Final residual = 0.0404457, No Iterations 30
time step continuity errors : sum local = 22.3268, global = 2.30396, cumulative = -0.0348667
smoothSolver:  Solving for omega, Initial residual = 0.022996, Final residual = 0.000477139, No Iterations 2
smoothSolver:  Solving for k, Initial residual = 0.28421, Final residual = 0.0277446, No Iterations 1
ExecutionTime = 1.40087 s  ClockTime = 2 s

Time = 6s

smoothSolver:  Solving for Ux, Initial residual = 0.165682, Final residual = 0.00412235, No Iterations 2
smoothSolver:  Solving for Uy, Initial residual = 0.166362, Final residual = 0.00418875, No Iterations 2
smoothSolver:  Solving for Uz, Initial residual = 0.0954955, Final residual = 0.00176539, No Iterations 2
DICPCG:  Solving for p, Initial residual = 0.265319, Final residual = 0.0249836, No Iterations 55
time step continuity errors : sum local = 29.5294, global = -0.0382312, cumulative = -0.0730979
smoothSolver:  Solving for omega, Initial residual = 0.0806787, Final residual = 0.0022846, No Iterations 2
smoothSolver:  Solving for k, Initial residual = 0.44644, Final residual = 0.0365187, No Iterations 1
ExecutionTime = 1.55834 s  ClockTime = 2 s

Time = 7s

smoothSolver:  Solving for Ux, Initial residual = 0.203362, Final residual = 0.00756727, No Iterations 2
smoothSolver:  Solving for Uy, Initial residual = 0.266482, Final residual = 0.00532664, No Iterations 2
smoothSolver:  Solving for Uz, Initial residual = 0.136773, Final residual = 0.00253075, No Iterations 2
DICPCG:  Solving for p, Initial residual = 0.558783, Final residual = 0.0512927, No Iterations 50
time step continuity errors : sum local = 25.428, global = 0.641893, cumulative = 0.568795
smoothSolver:  Solving for omega, Initial residual = 0.0869025, Final residual = 0.00411259, No Iterations 2
smoothSolver:  Solving for k, Initial residual = 0.304598, Final residual = 0.00615977, No Iterations 2
ExecutionTime = 1.71313 s  ClockTime = 2 s

Time = 8s

smoothSolver:  Solving for Ux, Initial residual = 0.174576, Final residual = 0.0100528, No Iterations 2
smoothSolver:  Solving for Uy, Initial residual = 0.229516, Final residual = 0.00773494, No Iterations 2
smoothSolver:  Solving for Uz, Initial residual = 0.182203, Final residual = 0.00483756, No Iterations 2
DICPCG:  Solving for p, Initial residual = 0.0689163, Final residual = 0.00635201, No Iterations 33
time step continuity errors : sum local = 25.2345, global = -4.12142, cumulative = -3.55263
smoothSolver:  Solving for omega, Initial residual = 0.0708689, Final residual = 0.00377004, No Iterations 2
smoothSolver:  Solving for k, Initial residual = 0.236662, Final residual = 0.00547605, No Iterations 2
ExecutionTime = 1.85106 s  ClockTime = 2 s

Time = 9s

smoothSolver:  Solving for Ux, Initial residual = 0.13024, Final residual = 0.00765477, No Iterations 2
smoothSolver:  Solving for Uy, Initial residual = 0.207362, Final residual = 0.00766147, No Iterations 2
smoothSolver:  Solving for Uz, Initial residual = 0.214805, Final residual = 0.00743814, No Iterations 2
DICPCG:  Solving for p, Initial residual = 0.0641161, Final residual = 0.00556245, No Iterations 41
time step continuity errors : sum local = 24.8309, global = 3.89355, cumulative = 0.340925
smoothSolver:  Solving for omega, Initial residual = 0.0649393, Final residual = 0.00344108, No Iterations 2
smoothSolver:  Solving for k, Initial residual = 0.210754, Final residual = 0.00525114, No Iterations 2
ExecutionTime = 1.99582 s  ClockTime = 3 s

Time = 10s

smoothSolver:  Solving for Ux, Initial residual = 0.0917943, Final residual = 0.00486819, No Iterations 2
smoothSolver:  Solving for Uy, Initial residual = 0.168131, Final residual = 0.00669756, No Iterations 2
smoothSolver:  Solving for Uz, Initial residual = 0.163094, Final residual = 0.00565759, No Iterations 2
DICPCG:  Solving for p, Initial residual = 0.697944, Final residual = 0.0590584, No Iterations 40
time step continuity errors : sum local = 29.6416, global = 4.2679, cumulative = 4.60882
smoothSolver:  Solving for omega, Initial residual = 0.0576453, Final residual = 0.00294786, No Iterations 2
smoothSolver:  Solving for k, Initial residual = 0.200624, Final residual = 0.00492312, No Iterations 2
ExecutionTime = 2.13852 s  ClockTime = 3 s

Time = 11s

smoothSolver:  Solving for Ux, Initial residual = 0.0807327, Final residual = 0.00349062, No Iterations 2
smoothSolver:  Solving for Uy, Initial residual = 0.200016, Final residual = 0.00792684, No Iterations 2
smoothSolver:  Solving for Uz, Initial residual = 0.225849, Final residual = 0.00748966, No Iterations 2
DICPCG:  Solving for p, Initial residual = 0.0828897, Final residual = 0.00801743, No Iterations 12
time step continuity errors : sum local = 51.8629, global = 20.8032, cumulative = 25.412
smoothSolver:  Solving for omega, Initial residual = 0.0521828, Final residual = 0.00253528, No Iterations 2
smoothSolver:  Solving for k, Initial residual = 0.240462, Final residual = 0.00579152, No Iterations 2
ExecutionTime = 2.24894 s  ClockTime = 3 s

Time = 12s

smoothSolver:  Solving for Ux, Initial residual = 0.0683207, Final residual = 0.00278011, No Iterations 2
smoothSolver:  Solving for Uy, Initial residual = 0.184308, Final residual = 0.00751622, No Iterations 2
smoothSolver:  Solving for Uz, Initial residual = 0.201846, Final residual = 0.00664697, No Iterations 2
DICPCG:  Solving for p, Initial residual = 0.0730215, Final residual = 0.00655739, No Iterations 19
time step continuity errors : sum local = 52.2131, global = -11.5143, cumulative = 13.8977
smoothSolver:  Solving for omega, Initial residual = 0.0474941, Final residual = 0.00223299, No Iterations 2
smoothSolver:  Solving for k, Initial residual = 0.262231, Final residual = 0.00566226, No Iterations 2
ExecutionTime = 2.36526 s  ClockTime = 3 s

Time = 13s

smoothSolver:  Solving for Ux, Initial residual = 0.0670357, Final residual = 0.00249741, No Iterations 2
smoothSolver:  Solving for Uy, Initial residual = 0.151142, Final residual = 0.00556497, No Iterations 2
smoothSolver:  Solving for Uz, Initial residual = 0.13576, Final residual = 0.00407369, No Iterations 2
DICPCG:  Solving for p, Initial residual = 0.129849, Final residual = 0.0122381, No Iterations 33
time step continuity errors : sum local = 48.9021, global = -7.77026, cumulative = 6.12744
smoothSolver:  Solving for omega, Initial residual = 0.0443933, Final residual = 0.00208419, No Iterations 2
smoothSolver:  Solving for k, Initial residual = 0.241628, Final residual = 0.00489619, No Iterations 2
ExecutionTime = 2.49021 s  ClockTime = 3 s

Time = 14s

smoothSolver:  Solving for Ux, Initial residual = 0.0687524, Final residual = 0.00245273, No Iterations 2
smoothSolver:  Solving for Uy, Initial residual = 0.15418, Final residual = 0.00429244, No Iterations 2
smoothSolver:  Solving for Uz, Initial residual = 0.116876, Final residual = 0.0027275, No Iterations 2
DICPCG:  Solving for p, Initial residual = 0.464316, Final residual = 0.0452116, No Iterations 23
time step continuity errors : sum local = 47.8644, global = -12.6659, cumulative = -6.53851
smoothSolver:  Solving for omega, Initial residual = 0.0428779, Final residual = 0.00200058, No Iterations 2
smoothSolver:  Solving for k, Initial residual = 0.214196, Final residual = 0.00466277, No Iterations 2
ExecutionTime = 2.61541 s  ClockTime = 3 s

Time = 15s

smoothSolver:  Solving for Ux, Initial residual = 0.0616511, Final residual = 0.00227845, No Iterations 2
smoothSolver:  Solving for Uy, Initial residual = 0.146602, Final residual = 0.00388438, No Iterations 2
smoothSolver:  Solving for Uz, Initial residual = 0.121499, Final residual = 0.00247363, No Iterations 2
DICPCG:  Solving for p, Initial residual = 0.275275, Final residual = 0.0263151, No Iterations 19
time step continuity errors : sum local = 47.4434, global = 1.01793, cumulative = -5.52059
smoothSolver:  Solving for omega, Initial residual = 0.0414712, Final residual = 0.00192895, No Iterations 2
smoothSolver:  Solving for k, Initial residual = 0.192408, Final residual = 0.00411065, No Iterations 2
ExecutionTime = 2.7261 s  ClockTime = 3 s

Time = 16s

smoothSolver:  Solving for Ux, Initial residual = 0.0543498, Final residual = 0.00199702, No Iterations 2
smoothSolver:  Solving for Uy, Initial residual = 0.127496, Final residual = 0.00400875, No Iterations 2
smoothSolver:  Solving for Uz, Initial residual = 0.112745, Final residual = 0.0025129, No Iterations 2
DICPCG:  Solving for p, Initial residual = 0.444121, Final residual = 0.0421483, No Iterations 25
time step continuity errors : sum local = 42.7522, global = 9.62368, cumulative = 4.1031
smoothSolver:  Solving for omega, Initial residual = 0.0402365, Final residual = 0.00182768, No Iterations 2
smoothSolver:  Solving for k, Initial residual = 0.180614, Final residual = 0.0036171, No Iterations 2
ExecutionTime = 2.85613 s  ClockTime = 3 s

Time = 17s

smoothSolver:  Solving for Ux, Initial residual = 0.0514099, Final residual = 0.00174477, No Iterations 2
smoothSolver:  Solving for Uy, Initial residual = 0.127077, Final residual = 0.00436665, No Iterations 2
smoothSolver:  Solving for Uz, Initial residual = 0.108478, Final residual = 0.00254721, No Iterations 2
DICPCG:  Solving for p, Initial residual = 0.24998, Final residual = 0.0233553, No Iterations 23
time step continuity errors : sum local = 39.463, global = 5.83106, cumulative = 9.93415
smoothSolver:  Solving for omega, Initial residual = 0.0390112, Final residual = 0.00168447, No Iterations 2
smoothSolver:  Solving for k, Initial residual = 0.18983, Final residual = 0.00384833, No Iterations 2
ExecutionTime = 2.98759 s  ClockTime = 4 s

Time = 18s

smoothSolver:  Solving for Ux, Initial residual = 0.0488298, Final residual = 0.00155638, No Iterations 2
smoothSolver:  Solving for Uy, Initial residual = 0.123756, Final residual = 0.00435453, No Iterations 2
smoothSolver:  Solving for Uz, Initial residual = 0.107034, Final residual = 0.0024448, No Iterations 2
DICPCG:  Solving for p, Initial residual = 0.173572, Final residual = 0.0165296, No Iterations 20
time step continuity errors : sum local = 39.0874, global = 6.96648, cumulative = 16.9006
smoothSolver:  Solving for omega, Initial residual = 0.0378565, Final residual = 0.00151331, No Iterations 2
smoothSolver:  Solving for k, Initial residual = 0.182538, Final residual = 0.0037014, No Iterations 2
ExecutionTime = 3.12301 s  ClockTime = 4 s

Time = 19s

smoothSolver:  Solving for Ux, Initial residual = 0.0461447, Final residual = 0.00138344, No Iterations 2
smoothSolver:  Solving for Uy, Initial residual = 0.115496, Final residual = 0.00398891, No Iterations 2
smoothSolver:  Solving for Uz, Initial residual = 0.0996072, Final residual = 0.00217559, No Iterations 2
DICPCG:  Solving for p, Initial residual = 0.180706, Final residual = 0.0176364, No Iterations 23
time step continuity errors : sum local = 37.979, global = -6.71642, cumulative = 10.1842
smoothSolver:  Solving for omega, Initial residual = 0.0364058, Final residual = 0.00129523, No Iterations 2
smoothSolver:  Solving for k, Initial residual = 0.186784, Final residual = 0.0183464, No Iterations 1
ExecutionTime = 3.25405 s  ClockTime = 4 s

Time = 20s

smoothSolver:  Solving for Ux, Initial residual = 0.0444491, Final residual = 0.00120182, No Iterations 2
smoothSolver:  Solving for Uy, Initial residual = 0.119268, Final residual = 0.00366146, No Iterations 2
smoothSolver:  Solving for Uz, Initial residual = 0.100718, Final residual = 0.00968445, No Iterations 1
DICPCG:  Solving for p, Initial residual = 0.269499, Final residual = 0.0263213, No Iterations 23
time step continuity errors : sum local = 36.4338, global = -9.72436, cumulative = 0.459865
smoothSolver:  Solving for omega, Initial residual = 0.0345951, Final residual = 0.00106257, No Iterations 2
smoothSolver:  Solving for k, Initial residual = 0.170467, Final residual = 0.0161321, No Iterations 1
ExecutionTime = 3.37934 s  ClockTime = 4 s

Time = 21s

smoothSolver:  Solving for Ux, Initial residual = 0.0428835, Final residual = 0.0010004, No Iterations 2
smoothSolver:  Solving for Uy, Initial residual = 0.118911, Final residual = 0.00352236, No Iterations 2
smoothSolver:  Solving for Uz, Initial residual = 0.110554, Final residual = 0.0100135, No Iterations 1
DICPCG:  Solving for p, Initial residual = 0.358953, Final residual = 0.0355021, No Iterations 17
time step continuity errors : sum local = 36.4036, global = -7.01489, cumulative = -6.55502
smoothSolver:  Solving for omega, Initial residual = 0.0326594, Final residual = 0.000823807, No Iterations 2
smoothSolver:  Solving for k, Initial residual = 0.176135, Final residual = 0.0144988, No Iterations 1
ExecutionTime = 3.50273 s  ClockTime = 4 s

Time = 22s

smoothSolver:  Solving for Ux, Initial residual = 0.041119, Final residual = 0.000786569, No Iterations 2
smoothSolver:  Solving for Uy, Initial residual = 0.113805, Final residual = 0.00331319, No Iterations 2
smoothSolver:  Solving for Uz, Initial residual = 0.11097, Final residual = 0.00978381, No Iterations 1
DICPCG:  Solving for p, Initial residual = 0.365835, Final residual = 0.0326002, No Iterations 21
time step continuity errors : sum local = 30.8045, global = -0.924477, cumulative = -7.4795
smoothSolver:  Solving for omega, Initial residual = 0.0309514, Final residual = 0.000597111, No Iterations 2
smoothSolver:  Solving for k, Initial residual = 0.166755, Final residual = 0.0129157, No Iterations 1
ExecutionTime = 3.63037 s  ClockTime = 4 s

Time = 23s

smoothSolver:  Solving for Ux, Initial residual = 0.0390854, Final residual = 0.00367353, No Iterations 1
smoothSolver:  Solving for Uy, Initial residual = 0.11301, Final residual = 0.00305993, No Iterations 2
smoothSolver:  Solving for Uz, Initial residual = 0.109763, Final residual = 0.00946871, No Iterations 1
DICPCG:  Solving for p, Initial residual = 0.321365, Final residual = 0.031923, No Iterations 18
time step continuity errors : sum local = 32.928, global = 5.51775, cumulative = -1.96176
smoothSolver:  Solving for omega, Initial residual = 0.029568, Final residual = 0.0025285, No Iterations 1
smoothSolver:  Solving for k, Initial residual = 0.175325, Final residual = 0.0123904, No Iterations 1
ExecutionTime = 3.7629 s  ClockTime = 4 s

Time = 24s

smoothSolver:  Solving for Ux, Initial residual = 0.0372446, Final residual = 0.00306438, No Iterations 1
smoothSolver:  Solving for Uy, Initial residual = 0.109919, Final residual = 0.00245024, No Iterations 2
smoothSolver:  Solving for Uz, Initial residual = 0.10762, Final residual = 0.00851577, No Iterations 1
DICPCG:  Solving for p, Initial residual = 0.258003, Final residual = 0.0244682, No Iterations 16
time step continuity errors : sum local = 31.1369, global = 9.55739, cumulative = 7.59563
smoothSolver:  Solving for omega, Initial residual = 0.0296163, Final residual = 0.00206136, No Iterations 1
smoothSolver:  Solving for k, Initial residual = 0.187671, Final residual = 0.0108966, No Iterations 1
ExecutionTime = 3.90824 s  ClockTime = 4 s

Time = 25s

smoothSolver:  Solving for Ux, Initial residual = 0.0351097, Final residual = 0.00241228, No Iterations 1
smoothSolver:  Solving for Uy, Initial residual = 0.104342, Final residual = 0.00968866, No Iterations 1
smoothSolver:  Solving for Uz, Initial residual = 0.103975, Final residual = 0.0066883, No Iterations 1
DICPCG:  Solving for p, Initial residual = 0.319778, Final residual = 0.0302368, No Iterations 17
time step continuity errors : sum local = 28.366, global = 5.74257, cumulative = 13.3382
smoothSolver:  Solving for omega, Initial residual = 0.0303328, Final residual = 0.00169286, No Iterations 1
smoothSolver:  Solving for k, Initial residual = 0.183656, Final residual = 0.00967537, No Iterations 1
ExecutionTime = 4.02532 s  ClockTime = 5 s

Time = 26s

smoothSolver:  Solving for Ux, Initial residual = 0.0331402, Final residual = 0.00187347, No Iterations 1
smoothSolver:  Solving for Uy, Initial residual = 0.100767, Final residual = 0.00750201, No Iterations 1
smoothSolver:  Solving for Uz, Initial residual = 0.102109, Final residual = 0.00503599, No Iterations 1
DICPCG:  Solving for p, Initial residual = 0.315177, Final residual = 0.0281903, No Iterations 12
time step continuity errors : sum local = 24.9571, global = -4.03492, cumulative = 9.30328
smoothSolver:  Solving for omega, Initial residual = 0.0312101, Final residual = 0.0014112, No Iterations 1
smoothSolver:  Solving for k, Initial residual = 0.180611, Final residual = 0.00831451, No Iterations 1
ExecutionTime = 4.13457 s  ClockTime = 5 s

Time = 27s

smoothSolver:  Solving for Ux, Initial residual = 0.0311889, Final residual = 0.00150583, No Iterations 1
smoothSolver:  Solving for Uy, Initial residual = 0.0942604, Final residual = 0.00553074, No Iterations 1
smoothSolver:  Solving for Uz, Initial residual = 0.0976284, Final residual = 0.0037319, No Iterations 1
DICPCG:  Solving for p, Initial residual = 0.278977, Final residual = 0.0248458, No Iterations 28
time step continuity errors : sum local = 23.2265, global = -2.88609, cumulative = 6.4172
smoothSolver:  Solving for omega, Initial residual = 0.031732, Final residual = 0.00120517, No Iterations 1
smoothSolver:  Solving for k, Initial residual = 0.183175, Final residual = 0.00872539, No Iterations 1
ExecutionTime = 4.25803 s  ClockTime = 5 s

Time = 28s

smoothSolver:  Solving for Ux, Initial residual = 0.0295258, Final residual = 0.00132038, No Iterations 1
smoothSolver:  Solving for Uy, Initial residual = 0.0891478, Final residual = 0.00452463, No Iterations 1
smoothSolver:  Solving for Uz, Initial residual = 0.0891727, Final residual = 0.00298939, No Iterations 1
DICPCG:  Solving for p, Initial residual = 0.533665, Final residual = 0.053184, No Iterations 27
time step continuity errors : sum local = 24.524, global = -4.9217, cumulative = 1.4955
smoothSolver:  Solving for omega, Initial residual = 0.0313024, Final residual = 0.00105434, No Iterations 1
smoothSolver:  Solving for k, Initial residual = 0.182839, Final residual = 0.00853393, No Iterations 1
ExecutionTime = 4.37499 s  ClockTime = 5 s

Time = 29s

smoothSolver:  Solving for Ux, Initial residual = 0.0285898, Final residual = 0.00123457, No Iterations 1
smoothSolver:  Solving for Uy, Initial residual = 0.0866797, Final residual = 0.00390186, No Iterations 1
smoothSolver:  Solving for Uz, Initial residual = 0.0856744, Final residual = 0.00285328, No Iterations 1
DICPCG:  Solving for p, Initial residual = 0.172322, Final residual = 0.0169693, No Iterations 17
time step continuity errors : sum local = 25.2295, global = -3.06277, cumulative = -1.56727
smoothSolver:  Solving for omega, Initial residual = 0.029577, Final residual = 0.000991801, No Iterations 1
smoothSolver:  Solving for k, Initial residual = 0.189331, Final residual = 0.00891338, No Iterations 1
ExecutionTime = 4.49855 s  ClockTime = 5 s

Time = 30s

smoothSolver:  Solving for Ux, Initial residual = 0.0277369, Final residual = 0.00118641, No Iterations 1
smoothSolver:  Solving for Uy, Initial residual = 0.0873445, Final residual = 0.0036759, No Iterations 1
smoothSolver:  Solving for Uz, Initial residual = 0.0812321, Final residual = 0.00297902, No Iterations 1
DICPCG:  Solving for p, Initial residual = 0.159393, Final residual = 0.0145426, No Iterations 16
time step continuity errors : sum local = 22.9869, global = 4.75428, cumulative = 3.18701
smoothSolver:  Solving for omega, Initial residual = 0.0271693, Final residual = 0.000990445, No Iterations 1
smoothSolver:  Solving for k, Initial residual = 0.199059, Final residual = 0.0108896, No Iterations 1
ExecutionTime = 4.62311 s  ClockTime = 5 s

Time = 31s

smoothSolver:  Solving for Ux, Initial residual = 0.0264338, Final residual = 0.00116742, No Iterations 1
smoothSolver:  Solving for Uy, Initial residual = 0.0888496, Final residual = 0.00371919, No Iterations 1
smoothSolver:  Solving for Uz, Initial residual = 0.0787432, Final residual = 0.00312617, No Iterations 1
DICPCG:  Solving for p, Initial residual = 0.144375, Final residual = 0.0141769, No Iterations 21
time step continuity errors : sum local = 24.9638, global = 6.00359, cumulative = 9.1906
smoothSolver:  Solving for omega, Initial residual = 0.0245976, Final residual = 0.00101976, No Iterations 1
smoothSolver:  Solving for k, Initial residual = 0.226384, Final residual = 0.0124444, No Iterations 1
ExecutionTime = 4.73773 s  ClockTime = 5 s

Time = 32s

smoothSolver:  Solving for Ux, Initial residual = 0.0248728, Final residual = 0.0011698, No Iterations 1
smoothSolver:  Solving for Uy, Initial residual = 0.0898538, Final residual = 0.00386216, No Iterations 1
smoothSolver:  Solving for Uz, Initial residual = 0.0765428, Final residual = 0.00325943, No Iterations 1
DICPCG:  Solving for p, Initial residual = 0.144017, Final residual = 0.0125087, No Iterations 22
time step continuity errors : sum local = 21.9377, global = 1.55158, cumulative = 10.7422
smoothSolver:  Solving for omega, Initial residual = 0.022267, Final residual = 0.00107442, No Iterations 1
smoothSolver:  Solving for k, Initial residual = 0.216338, Final residual = 0.0124747, No Iterations 1
ExecutionTime = 4.85858 s  ClockTime = 5 s

Time = 33s

smoothSolver:  Solving for Ux, Initial residual = 0.0224354, Final residual = 0.00113151, No Iterations 1
smoothSolver:  Solving for Uy, Initial residual = 0.0892639, Final residual = 0.0041347, No Iterations 1
smoothSolver:  Solving for Uz, Initial residual = 0.0723465, Final residual = 0.00332933, No Iterations 1
DICPCG:  Solving for p, Initial residual = 0.162406, Final residual = 0.0140434, No Iterations 9
time step continuity errors : sum local = 23.7811, global = 9.1684, cumulative = 19.9106
smoothSolver:  Solving for omega, Initial residual = 0.0202229, Final residual = 0.00111822, No Iterations 1
smoothSolver:  Solving for k, Initial residual = 0.251546, Final residual = 0.0146357, No Iterations 1
ExecutionTime = 4.97297 s  ClockTime = 5 s

Time = 34s

smoothSolver:  Solving for Ux, Initial residual = 0.0200541, Final residual = 0.00109077, No Iterations 1
smoothSolver:  Solving for Uy, Initial residual = 0.0876713, Final residual = 0.00460218, No Iterations 1
smoothSolver:  Solving for Uz, Initial residual = 0.0719308, Final residual = 0.00362758, No Iterations 1
DICPCG:  Solving for p, Initial residual = 0.153911, Final residual = 0.014527, No Iterations 12
time step continuity errors : sum local = 24.6389, global = 6.89347, cumulative = 26.8041
smoothSolver:  Solving for omega, Initial residual = 0.0183489, Final residual = 0.0011438, No Iterations 1
smoothSolver:  Solving for k, Initial residual = 0.241371, Final residual = 0.0158061, No Iterations 1
ExecutionTime = 5.09518 s  ClockTime = 6 s

Time = 35s

smoothSolver:  Solving for Ux, Initial residual = 0.0181678, Final residual = 0.0010184, No Iterations 1
smoothSolver:  Solving for Uy, Initial residual = 0.083634, Final residual = 0.00502759, No Iterations 1
smoothSolver:  Solving for Uz, Initial residual = 0.0692817, Final residual = 0.00415414, No Iterations 1
DICPCG:  Solving for p, Initial residual = 0.156015, Final residual = 0.0141302, No Iterations 19
time step continuity errors : sum local = 22.8914, global = 6.29551, cumulative = 33.0996
smoothSolver:  Solving for omega, Initial residual = 0.0165385, Final residual = 0.00116821, No Iterations 1
smoothSolver:  Solving for k, Initial residual = 0.225561, Final residual = 0.0165769, No Iterations 1
ExecutionTime = 5.21842 s  ClockTime = 6 s

Time = 36s

smoothSolver:  Solving for Ux, Initial residual = 0.0162927, Final residual = 0.000901509, No Iterations 1
smoothSolver:  Solving for Uy, Initial residual = 0.0741971, Final residual = 0.00504982, No Iterations 1
smoothSolver:  Solving for Uz, Initial residual = 0.0587726, Final residual = 0.00420184, No Iterations 1
DICPCG:  Solving for p, Initial residual = 0.208451, Final residual = 0.0200302, No Iterations 22
time step continuity errors : sum local = 24.1499, global = 3.85524, cumulative = 36.9548
smoothSolver:  Solving for omega, Initial residual = 0.0148939, Final residual = 0.00116467, No Iterations 1
smoothSolver:  Solving for k, Initial residual = 0.225094, Final residual = 0.0178637, No Iterations 1
ExecutionTime = 5.3323 s  ClockTime = 6 s

Time = 37s

smoothSolver:  Solving for Ux, Initial residual = 0.0142802, Final residual = 0.000779106, No Iterations 1
smoothSolver:  Solving for Uy, Initial residual = 0.0655281, Final residual = 0.0049903, No Iterations 1
smoothSolver:  Solving for Uz, Initial residual = 0.0517652, Final residual = 0.0043188, No Iterations 1
DICPCG:  Solving for p, Initial residual = 0.298354, Final residual = 0.0286827, No Iterations 21
time step continuity errors : sum local = 21.7393, global = 2.21192, cumulative = 39.1667
smoothSolver:  Solving for omega, Initial residual = 0.0136231, Final residual = 0.00118316, No Iterations 1
smoothSolver:  Solving for k, Initial residual = 0.20414, Final residual = 0.0158208, No Iterations 1
ExecutionTime = 5.45465 s  ClockTime = 6 s

Time = 38s

smoothSolver:  Solving for Ux, Initial residual = 0.0122432, Final residual = 0.000674697, No Iterations 1
smoothSolver:  Solving for Uy, Initial residual = 0.0586389, Final residual = 0.00493681, No Iterations 1
smoothSolver:  Solving for Uz, Initial residual = 0.0478277, Final residual = 0.00457898, No Iterations 1
DICPCG:  Solving for p, Initial residual = 0.381785, Final residual = 0.0343058, No Iterations 8
time step continuity errors : sum local = 18.7185, global = 3.20514, cumulative = 42.3719
smoothSolver:  Solving for omega, Initial residual = 0.0126721, Final residual = 0.00121489, No Iterations 1
smoothSolver:  Solving for k, Initial residual = 0.177906, Final residual = 0.0147688, No Iterations 1
ExecutionTime = 5.55918 s  ClockTime = 6 s

Time = 39s

smoothSolver:  Solving for Ux, Initial residual = 0.0104541, Final residual = 0.000608506, No Iterations 1
smoothSolver:  Solving for Uy, Initial residual = 0.0520916, Final residual = 0.00482728, No Iterations 1
smoothSolver:  Solving for Uz, Initial residual = 0.0450939, Final residual = 0.000928284, No Iterations 2
DICPCG:  Solving for p, Initial residual = 0.378578, Final residual = 0.0335561, No Iterations 9
time step continuity errors : sum local = 18.8351, global = -0.588512, cumulative = 41.7833
smoothSolver:  Solving for omega, Initial residual = 0.0119678, Final residual = 0.000223576, No Iterations 2
smoothSolver:  Solving for k, Initial residual = 0.173118, Final residual = 0.0156231, No Iterations 1
ExecutionTime = 5.66447 s  ClockTime = 6 s

Time = 40s

smoothSolver:  Solving for Ux, Initial residual = 0.009086, Final residual = 0.000607448, No Iterations 1
smoothSolver:  Solving for Uy, Initial residual = 0.0453467, Final residual = 0.000943696, No Iterations 2
smoothSolver:  Solving for Uz, Initial residual = 0.0429111, Final residual = 0.000975614, No Iterations 2
DICPCG:  Solving for p, Initial residual = 0.369024, Final residual = 0.0365927, No Iterations 10
time step continuity errors : sum local = 20.2989, global = -1.22037, cumulative = 40.563
smoothSolver:  Solving for omega, Initial residual = 0.0113491, Final residual = 0.000226261, No Iterations 2
smoothSolver:  Solving for k, Initial residual = 0.199341, Final residual = 0.0184854, No Iterations 1
ExecutionTime = 5.78061 s  ClockTime = 6 s

Time = 41s

smoothSolver:  Solving for Ux, Initial residual = 0.00828501, Final residual = 0.000658269, No Iterations 1
smoothSolver:  Solving for Uy, Initial residual = 0.039067, Final residual = 0.000906332, No Iterations 2
smoothSolver:  Solving for Uz, Initial residual = 0.0419105, Final residual = 0.00104003, No Iterations 2
DICPCG:  Solving for p, Initial residual = 0.336629, Final residual = 0.0310517, No Iterations 20
time step continuity errors : sum local = 17.5706, global = 3.47118, cumulative = 44.0341
smoothSolver:  Solving for omega, Initial residual = 0.0108363, Final residual = 0.000230598, No Iterations 2
smoothSolver:  Solving for k, Initial residual = 0.177345, Final residual = 0.0171534, No Iterations 1
ExecutionTime = 5.89218 s  ClockTime = 6 s

Time = 42s

smoothSolver:  Solving for Ux, Initial residual = 0.00774577, Final residual = 0.000685415, No Iterations 1
smoothSolver:  Solving for Uy, Initial residual = 0.0331297, Final residual = 0.000783231, No Iterations 2
smoothSolver:  Solving for Uz, Initial residual = 0.0404867, Final residual = 0.00099482, No Iterations 2
DICPCG:  Solving for p, Initial residual = 0.322549, Final residual = 0.0288992, No Iterations 25
time step continuity errors : sum local = 16.0116, global = 3.0392, cumulative = 47.0733
smoothSolver:  Solving for omega, Initial residual = 0.0101879, Final residual = 0.000217461, No Iterations 2
smoothSolver:  Solving for k, Initial residual = 0.170649, Final residual = 0.0167216, No Iterations 1
ExecutionTime = 6.01282 s  ClockTime = 7 s

Time = 43s

smoothSolver:  Solving for Ux, Initial residual = 0.00742616, Final residual = 0.000689195, No Iterations 1
smoothSolver:  Solving for Uy, Initial residual = 0.0316994, Final residual = 0.000865349, No Iterations 2
smoothSolver:  Solving for Uz, Initial residual = 0.0424941, Final residual = 0.00117768, No Iterations 2
DICPCG:  Solving for p, Initial residual = 0.47386, Final residual = 0.0446042, No Iterations 24
time step continuity errors : sum local = 14.5788, global = 2.61681, cumulative = 49.6902
smoothSolver:  Solving for omega, Initial residual = 0.00956499, Final residual = 0.000206687, No Iterations 2
smoothSolver:  Solving for k, Initial residual = 0.180082, Final residual = 0.0172067, No Iterations 1
ExecutionTime = 6.128 s  ClockTime = 7 s

Time = 44s

smoothSolver:  Solving for Ux, Initial residual = 0.00724539, Final residual = 0.000699411, No Iterations 1
smoothSolver:  Solving for Uy, Initial residual = 0.0330934, Final residual = 0.000976223, No Iterations 2
smoothSolver:  Solving for Uz, Initial residual = 0.0443863, Final residual = 0.00119103, No Iterations 2
DICPCG:  Solving for p, Initial residual = 0.40082, Final residual = 0.0392467, No Iterations 18
time step continuity errors : sum local = 13.7148, global = -3.04433, cumulative = 46.6458
smoothSolver:  Solving for omega, Initial residual = 0.00911727, Final residual = 0.000196591, No Iterations 2
smoothSolver:  Solving for k, Initial residual = 0.161267, Final residual = 0.00319011, No Iterations 2
ExecutionTime = 6.24401 s  ClockTime = 7 s

Time = 45s

smoothSolver:  Solving for Ux, Initial residual = 0.00679203, Final residual = 0.000662524, No Iterations 1
smoothSolver:  Solving for Uy, Initial residual = 0.0305078, Final residual = 0.000918038, No Iterations 2
smoothSolver:  Solving for Uz, Initial residual = 0.038671, Final residual = 0.000993347, No Iterations 2
DICPCG:  Solving for p, Initial residual = 0.43524, Final residual = 0.0428263, No Iterations 28
time step continuity errors : sum local = 13.0629, global = -1.52276, cumulative = 45.1231
smoothSolver:  Solving for omega, Initial residual = 0.00864817, Final residual = 0.000190431, No Iterations 2
smoothSolver:  Solving for k, Initial residual = 0.174816, Final residual = 0.0167472, No Iterations 1
ExecutionTime = 6.36954 s  ClockTime = 7 s

Time = 46s

smoothSolver:  Solving for Ux, Initial residual = 0.00619454, Final residual = 0.000603034, No Iterations 1
smoothSolver:  Solving for Uy, Initial residual = 0.0261072, Final residual = 0.000822852, No Iterations 2
smoothSolver:  Solving for Uz, Initial residual = 0.0319017, Final residual = 0.000851109, No Iterations 2
DICPCG:  Solving for p, Initial residual = 0.290248, Final residual = 0.0239993, No Iterations 26
time step continuity errors : sum local = 10.1266, global = -1.56731, cumulative = 43.5558
smoothSolver:  Solving for omega, Initial residual = 0.0079878, Final residual = 0.000184258, No Iterations 2
smoothSolver:  Solving for k, Initial residual = 0.184907, Final residual = 0.0184048, No Iterations 1
ExecutionTime = 6.49002 s  ClockTime = 7 s

Time = 47s

smoothSolver:  Solving for Ux, Initial residual = 0.00596596, Final residual = 0.000135645, No Iterations 2
smoothSolver:  Solving for Uy, Initial residual = 0.0257059, Final residual = 0.000844269, No Iterations 2
smoothSolver:  Solving for Uz, Initial residual = 0.0347752, Final residual = 0.000961256, No Iterations 2
DICPCG:  Solving for p, Initial residual = 0.165965, Final residual = 0.0159726, No Iterations 15
time step continuity errors : sum local = 11.7932, global = -0.214618, cumulative = 43.3411
smoothSolver:  Solving for omega, Initial residual = 0.00733808, Final residual = 0.000179167, No Iterations 2
smoothSolver:  Solving for k, Initial residual = 0.201171, Final residual = 0.00419622, No Iterations 2
ExecutionTime = 6.60124 s  ClockTime = 7 s

Time = 48s

smoothSolver:  Solving for Ux, Initial residual = 0.00581925, Final residual = 0.000136359, No Iterations 2
smoothSolver:  Solving for Uy, Initial residual = 0.025215, Final residual = 0.000838821, No Iterations 2
smoothSolver:  Solving for Uz, Initial residual = 0.033657, Final residual = 0.000940743, No Iterations 2
DICPCG:  Solving for p, Initial residual = 0.172754, Final residual = 0.0170557, No Iterations 19
time step continuity errors : sum local = 12.0551, global = 2.76151, cumulative = 46.1027
smoothSolver:  Solving for omega, Initial residual = 0.00673065, Final residual = 0.000172829, No Iterations 2
smoothSolver:  Solving for k, Initial residual = 0.200914, Final residual = 0.0196161, No Iterations 1
ExecutionTime = 6.70478 s  ClockTime = 7 s

Time = 49s

smoothSolver:  Solving for Ux, Initial residual = 0.00543435, Final residual = 0.000130535, No Iterations 2
smoothSolver:  Solving for Uy, Initial residual = 0.0243594, Final residual = 0.000834873, No Iterations 2
smoothSolver:  Solving for Uz, Initial residual = 0.0313167, Final residual = 0.000927817, No Iterations 2
DICPCG:  Solving for p, Initial residual = 0.171995, Final residual = 0.0158807, No Iterations 21
time step continuity errors : sum local = 11.6079, global = 1.70674, cumulative = 47.8094
smoothSolver:  Solving for omega, Initial residual = 0.00613485, Final residual = 0.000163774, No Iterations 2
smoothSolver:  Solving for k, Initial residual = 0.201507, Final residual = 0.00357138, No Iterations 2
ExecutionTime = 6.81818 s  ClockTime = 7 s

Time = 50s

smoothSolver:  Solving for Ux, Initial residual = 0.00512222, Final residual = 0.000128259, No Iterations 2
smoothSolver:  Solving for Uy, Initial residual = 0.0240243, Final residual = 0.000871003, No Iterations 2
smoothSolver:  Solving for Uz, Initial residual = 0.0295221, Final residual = 0.000934764, No Iterations 2
DICPCG:  Solving for p, Initial residual = 0.206206, Final residual = 0.0177874, No Iterations 18
time step continuity errors : sum local = 10.2821, global = 1.32584, cumulative = 49.1352
smoothSolver:  Solving for omega, Initial residual = 0.00582041, Final residual = 0.000156855, No Iterations 2
smoothSolver:  Solving for k, Initial residual = 0.18338, Final residual = 0.00355653, No Iterations 2
ExecutionTime = 7.16111 s  ClockTime = 8 s

Time = 51s

smoothSolver:  Solving for Ux, Initial residual = 0.00485544, Final residual = 0.000126299, No Iterations 2
smoothSolver:  Solving for Uy, Initial residual = 0.023207, Final residual = 0.000870229, No Iterations 2
smoothSolver:  Solving for Uz, Initial residual = 0.027157, Final residual = 0.000860449, No Iterations 2
DICPCG:  Solving for p, Initial residual = 0.219917, Final residual = 0.0186303, No Iterations 8
time step continuity errors : sum local = 9.52564, global = 0.908787, cumulative = 50.044
smoothSolver:  Solving for omega, Initial residual = 0.00552997, Final residual = 0.000149838, No Iterations 2
smoothSolver:  Solving for k, Initial residual = 0.180253, Final residual = 0.00378528, No Iterations 2
ExecutionTime = 7.27664 s  ClockTime = 8 s

Time = 52s

smoothSolver:  Solving for Ux, Initial residual = 0.0046408, Final residual = 0.00012149, No Iterations 2
smoothSolver:  Solving for Uy, Initial residual = 0.0224786, Final residual = 0.000847582, No Iterations 2
smoothSolver:  Solving for Uz, Initial residual = 0.0263714, Final residual = 0.000837391, No Iterations 2
DICPCG:  Solving for p, Initial residual = 0.206334, Final residual = 0.0200873, No Iterations 9
time step continuity errors : sum local = 10.4782, global = -1.11818, cumulative = 48.9258
smoothSolver:  Solving for omega, Initial residual = 0.00517704, Final residual = 0.000142362, No Iterations 2
smoothSolver:  Solving for k, Initial residual = 0.20829, Final residual = 0.00432919, No Iterations 2
ExecutionTime = 7.39023 s  ClockTime = 8 s

Time = 53s

smoothSolver:  Solving for Ux, Initial residual = 0.00437204, Final residual = 0.000114697, No Iterations 2
smoothSolver:  Solving for Uy, Initial residual = 0.0218946, Final residual = 0.00081674, No Iterations 2
smoothSolver:  Solving for Uz, Initial residual = 0.0260269, Final residual = 0.000828491, No Iterations 2
DICPCG:  Solving for p, Initial residual = 0.188756, Final residual = 0.0184881, No Iterations 12
time step continuity errors : sum local = 10.269, global = -0.726849, cumulative = 48.199
smoothSolver:  Solving for omega, Initial residual = 0.00484817, Final residual = 0.000135275, No Iterations 2
smoothSolver:  Solving for k, Initial residual = 0.213275, Final residual = 0.00488665, No Iterations 2
ExecutionTime = 7.50075 s  ClockTime = 8 s

Time = 54s

smoothSolver:  Solving for Ux, Initial residual = 0.00409404, Final residual = 0.000109129, No Iterations 2
smoothSolver:  Solving for Uy, Initial residual = 0.021667, Final residual = 0.000803494, No Iterations 2
smoothSolver:  Solving for Uz, Initial residual = 0.0256356, Final residual = 0.000796718, No Iterations 2
DICPCG:  Solving for p, Initial residual = 0.168667, Final residual = 0.0150594, No Iterations 12
time step continuity errors : sum local = 9.28201, global = -0.360142, cumulative = 47.8388
smoothSolver:  Solving for omega, Initial residual = 0.00463169, Final residual = 0.000130284, No Iterations 2
smoothSolver:  Solving for k, Initial residual = 0.189454, Final residual = 0.00402548, No Iterations 2
ExecutionTime = 7.60786 s  ClockTime = 8 s

Time = 55s

smoothSolver:  Solving for Ux, Initial residual = 0.00381355, Final residual = 0.000102705, No Iterations 2
smoothSolver:  Solving for Uy, Initial residual = 0.0214864, Final residual = 0.000802988, No Iterations 2
smoothSolver:  Solving for Uz, Initial residual = 0.0248082, Final residual = 0.000743499, No Iterations 2
DICPCG:  Solving for p, Initial residual = 0.144032, Final residual = 0.013539, No Iterations 7
time step continuity errors : sum local = 9.48215, global = 0.887992, cumulative = 48.7268
smoothSolver:  Solving for omega, Initial residual = 0.00448749, Final residual = 0.000125224, No Iterations 2
smoothSolver:  Solving for k, Initial residual = 0.236337, Final residual = 0.00456612, No Iterations 2
ExecutionTime = 7.70685 s  ClockTime = 8 s

Time = 56s

smoothSolver:  Solving for Ux, Initial residual = 0.00356167, Final residual = 9.55271e-05, No Iterations 2
smoothSolver:  Solving for Uy, Initial residual = 0.020882, Final residual = 0.000779324, No Iterations 2
smoothSolver:  Solving for Uz, Initial residual = 0.0237993, Final residual = 0.000695559, No Iterations 2
DICPCG:  Solving for p, Initial residual = 0.150188, Final residual = 0.0146642, No Iterations 10
time step continuity errors : sum local = 9.25778, global = 1.71871, cumulative = 50.4455
smoothSolver:  Solving for omega, Initial residual = 0.00438876, Final residual = 0.000120795, No Iterations 2
smoothSolver:  Solving for k, Initial residual = 0.23628, Final residual = 0.00481407, No Iterations 2
ExecutionTime = 7.82263 s  ClockTime = 8 s

Time = 57s

smoothSolver:  Solving for Ux, Initial residual = 0.00332579, Final residual = 8.78185e-05, No Iterations 2
smoothSolver:  Solving for Uy, Initial residual = 0.0203838, Final residual = 0.000754211, No Iterations 2
smoothSolver:  Solving for Uz, Initial residual = 0.0231512, Final residual = 0.000685148, No Iterations 2
DICPCG:  Solving for p, Initial residual = 0.148053, Final residual = 0.0141165, No Iterations 13
time step continuity errors : sum local = 8.87122, global = 1.91936, cumulative = 52.3649
smoothSolver:  Solving for omega, Initial residual = 0.00428854, Final residual = 0.000115376, No Iterations 2
smoothSolver:  Solving for k, Initial residual = 0.220797, Final residual = 0.0044444, No Iterations 2
ExecutionTime = 7.92802 s  ClockTime = 8 s

Time = 58s

smoothSolver:  Solving for Ux, Initial residual = 0.00308961, Final residual = 8.01714e-05, No Iterations 2
smoothSolver:  Solving for Uy, Initial residual = 0.0199491, Final residual = 0.000724141, No Iterations 2
smoothSolver:  Solving for Uz, Initial residual = 0.0223709, Final residual = 0.000669451, No Iterations 2
DICPCG:  Solving for p, Initial residual = 0.140454, Final residual = 0.0130208, No Iterations 17
time step continuity errors : sum local = 8.50697, global = 1.54275, cumulative = 53.9077
smoothSolver:  Solving for omega, Initial residual = 0.00417865, Final residual = 0.000109471, No Iterations 2
smoothSolver:  Solving for k, Initial residual = 0.239452, Final residual = 0.0237141, No Iterations 1
ExecutionTime = 8.04045 s  ClockTime = 9 s

Time = 59s

smoothSolver:  Solving for Ux, Initial residual = 0.00288149, Final residual = 7.36663e-05, No Iterations 2
smoothSolver:  Solving for Uy, Initial residual = 0.0198571, Final residual = 0.000716309, No Iterations 2
smoothSolver:  Solving for Uz, Initial residual = 0.0205357, Final residual = 0.000602275, No Iterations 2
DICPCG:  Solving for p, Initial residual = 0.152789, Final residual = 0.0152147, No Iterations 7
time step continuity errors : sum local = 8.52313, global = 1.16591, cumulative = 55.0736
smoothSolver:  Solving for omega, Initial residual = 0.00406671, Final residual = 0.000104828, No Iterations 2
smoothSolver:  Solving for k, Initial residual = 0.250064, Final residual = 0.00483159, No Iterations 2
ExecutionTime = 8.13637 s  ClockTime = 9 s

Time = 60s

smoothSolver:  Solving for Ux, Initial residual = 0.0026948, Final residual = 6.73353e-05, No Iterations 2
smoothSolver:  Solving for Uy, Initial residual = 0.0193827, Final residual = 0.000694424, No Iterations 2
smoothSolver:  Solving for Uz, Initial residual = 0.0195622, Final residual = 0.000568058, No Iterations 2
DICPCG:  Solving for p, Initial residual = 0.129982, Final residual = 0.0128678, No Iterations 10
time step continuity errors : sum local = 8.57587, global = 0.279517, cumulative = 55.3531
smoothSolver:  Solving for omega, Initial residual = 0.0039378, Final residual = 9.94623e-05, No Iterations 2
smoothSolver:  Solving for k, Initial residual = 0.234346, Final residual = 0.00454394, No Iterations 2
ExecutionTime = 8.2388 s  ClockTime = 9 s

Time = 61s

smoothSolver:  Solving for Ux, Initial residual = 0.00253367, Final residual = 6.18635e-05, No Iterations 2
smoothSolver:  Solving for Uy, Initial residual = 0.0189009, Final residual = 0.000683909, No Iterations 2
smoothSolver:  Solving for Uz, Initial residual = 0.0186317, Final residual = 0.000527812, No Iterations 2
DICPCG:  Solving for p, Initial residual = 0.136358, Final residual = 0.0119108, No Iterations 12
time step continuity errors : sum local = 7.1249, global = -0.875121, cumulative = 54.478
smoothSolver:  Solving for omega, Initial residual = 0.00379649, Final residual = 9.39931e-05, No Iterations 2
smoothSolver:  Solving for k, Initial residual = 0.245128, Final residual = 0.00447773, No Iterations 2
ExecutionTime = 8.35064 s  ClockTime = 9 s

Time = 62s

smoothSolver:  Solving for Ux, Initial residual = 0.00236568, Final residual = 5.66132e-05, No Iterations 2
smoothSolver:  Solving for Uy, Initial residual = 0.0183422, Final residual = 0.000670739, No Iterations 2
smoothSolver:  Solving for Uz, Initial residual = 0.0183569, Final residual = 0.000528706, No Iterations 2
DICPCG:  Solving for p, Initial residual = 0.130028, Final residual = 0.0114973, No Iterations 13
time step continuity errors : sum local = 6.72949, global = -1.0057, cumulative = 53.4723
smoothSolver:  Solving for omega, Initial residual = 0.00362229, Final residual = 8.85248e-05, No Iterations 2
smoothSolver:  Solving for k, Initial residual = 0.26132, Final residual = 0.0260345, No Iterations 1
ExecutionTime = 8.4645 s  ClockTime = 9 s

Time = 63s

smoothSolver:  Solving for Ux, Initial residual = 0.00218354, Final residual = 5.02322e-05, No Iterations 2
smoothSolver:  Solving for Uy, Initial residual = 0.0176318, Final residual = 0.000638349, No Iterations 2
smoothSolver:  Solving for Uz, Initial residual = 0.0185594, Final residual = 0.00054456, No Iterations 2
DICPCG:  Solving for p, Initial residual = 0.120037, Final residual = 0.0108061, No Iterations 6
time step continuity errors : sum local = 6.75172, global = -1.70196, cumulative = 51.7703
smoothSolver:  Solving for omega, Initial residual = 0.00345042, Final residual = 8.50534e-05, No Iterations 2
smoothSolver:  Solving for k, Initial residual = 0.217998, Final residual = 0.00423739, No Iterations 2
ExecutionTime = 8.58136 s  ClockTime = 9 s

Time = 64s

smoothSolver:  Solving for Ux, Initial residual = 0.00204162, Final residual = 4.49907e-05, No Iterations 2
smoothSolver:  Solving for Uy, Initial residual = 0.0168519, Final residual = 0.000599321, No Iterations 2
smoothSolver:  Solving for Uz, Initial residual = 0.0181233, Final residual = 0.00053089, No Iterations 2
DICPCG:  Solving for p, Initial residual = 0.115744, Final residual = 0.0114555, No Iterations 6
time step continuity errors : sum local = 7.2167, global = -1.14117, cumulative = 50.6291
smoothSolver:  Solving for omega, Initial residual = 0.00329616, Final residual = 8.3276e-05, No Iterations 2
smoothSolver:  Solving for k, Initial residual = 0.155182, Final residual = 0.00311188, No Iterations 2
ExecutionTime = 8.7095 s  ClockTime = 9 s

Time = 65s

smoothSolver:  Solving for Ux, Initial residual = 0.00192469, Final residual = 4.03481e-05, No Iterations 2
smoothSolver:  Solving for Uy, Initial residual = 0.0162589, Final residual = 0.000566057, No Iterations 2
smoothSolver:  Solving for Uz, Initial residual = 0.0175477, Final residual = 0.000505097, No Iterations 2
DICPCG:  Solving for p, Initial residual = 0.113273, Final residual = 0.0102281, No Iterations 8
time step continuity errors : sum local = 6.64535, global = 0.140516, cumulative = 50.7697
smoothSolver:  Solving for omega, Initial residual = 0.00319606, Final residual = 8.32673e-05, No Iterations 2
smoothSolver:  Solving for k, Initial residual = 0.196129, Final residual = 0.0195833, No Iterations 1
ExecutionTime = 8.833 s  ClockTime = 9 s

Time = 66s

smoothSolver:  Solving for Ux, Initial residual = 0.00183851, Final residual = 3.67699e-05, No Iterations 2
smoothSolver:  Solving for Uy, Initial residual = 0.015914, Final residual = 0.000541763, No Iterations 2
smoothSolver:  Solving for Uz, Initial residual = 0.0169756, Final residual = 0.000476963, No Iterations 2
DICPCG:  Solving for p, Initial residual = 0.114497, Final residual = 0.0110533, No Iterations 17
time step continuity errors : sum local = 6.90922, global = 1.03372, cumulative = 51.8034
smoothSolver:  Solving for omega, Initial residual = 0.00308473, Final residual = 8.39233e-05, No Iterations 2
smoothSolver:  Solving for k, Initial residual = 0.178758, Final residual = 0.017871, No Iterations 1
ExecutionTime = 8.95212 s  ClockTime = 9 s

Time = 67s

smoothSolver:  Solving for Ux, Initial residual = 0.00180472, Final residual = 0.00017992, No Iterations 1
smoothSolver:  Solving for Uy, Initial residual = 0.0157714, Final residual = 0.000529949, No Iterations 2
smoothSolver:  Solving for Uz, Initial residual = 0.0157262, Final residual = 0.000438229, No Iterations 2
DICPCG:  Solving for p, Initial residual = 0.111355, Final residual = 0.010982, No Iterations 15
time step continuity errors : sum local = 6.66994, global = 1.07894, cumulative = 52.8823
smoothSolver:  Solving for omega, Initial residual = 0.00299241, Final residual = 8.40306e-05, No Iterations 2
smoothSolver:  Solving for k, Initial residual = 0.201595, Final residual = 0.0195669, No Iterations 1
ExecutionTime = 9.06504 s  ClockTime = 10 s

Time = 68s

smoothSolver:  Solving for Ux, Initial residual = 0.00180003, Final residual = 0.000179505, No Iterations 1
smoothSolver:  Solving for Uy, Initial residual = 0.0154994, Final residual = 0.000510085, No Iterations 2
smoothSolver:  Solving for Uz, Initial residual = 0.014771, Final residual = 0.000409539, No Iterations 2
DICPCG:  Solving for p, Initial residual = 0.119847, Final residual = 0.0114198, No Iterations 7
time step continuity errors : sum local = 6.07828, global = 2.16511, cumulative = 55.0474
smoothSolver:  Solving for omega, Initial residual = 0.00288959, Final residual = 8.30846e-05, No Iterations 2
smoothSolver:  Solving for k, Initial residual = 0.190374, Final residual = 0.00319208, No Iterations 2
ExecutionTime = 9.17652 s  ClockTime = 10 s

Time = 69s

smoothSolver:  Solving for Ux, Initial residual = 0.00176759, Final residual = 0.000173803, No Iterations 1
smoothSolver:  Solving for Uy, Initial residual = 0.0152336, Final residual = 0.000490208, No Iterations 2
smoothSolver:  Solving for Uz, Initial residual = 0.0142867, Final residual = 0.000391004, No Iterations 2
DICPCG:  Solving for p, Initial residual = 0.107043, Final residual = 0.010551, No Iterations 14
time step continuity errors : sum local = 6.26962, global = 0.987224, cumulative = 56.0346
smoothSolver:  Solving for omega, Initial residual = 0.00280738, Final residual = 8.2182e-05, No Iterations 2
smoothSolver:  Solving for k, Initial residual = 0.206825, Final residual = 0.0191518, No Iterations 1
ExecutionTime = 9.29517 s  ClockTime = 10 s

Time = 70s

smoothSolver:  Solving for Ux, Initial residual = 0.00172253, Final residual = 0.000166809, No Iterations 1
smoothSolver:  Solving for Uy, Initial residual = 0.0148956, Final residual = 0.000474318, No Iterations 2
smoothSolver:  Solving for Uz, Initial residual = 0.0140591, Final residual = 0.000381101, No Iterations 2
DICPCG:  Solving for p, Initial residual = 0.108801, Final residual = 0.0105622, No Iterations 14
time step continuity errors : sum local = 5.92645, global = 1.33667, cumulative = 57.3713
smoothSolver:  Solving for omega, Initial residual = 0.00273102, Final residual = 8.03596e-05, No Iterations 2
smoothSolver:  Solving for k, Initial residual = 0.152294, Final residual = 0.00264229, No Iterations 2
ExecutionTime = 9.40405 s  ClockTime = 10 s

Time = 71s

smoothSolver:  Solving for Ux, Initial residual = 0.00170159, Final residual = 0.000162463, No Iterations 1
smoothSolver:  Solving for Uy, Initial residual = 0.0148355, Final residual = 0.000469776, No Iterations 2
smoothSolver:  Solving for Uz, Initial residual = 0.0138799, Final residual = 0.000380254, No Iterations 2
DICPCG:  Solving for p, Initial residual = 0.109321, Final residual = 0.0108214, No Iterations 6
time step continuity errors : sum local = 5.8408, global = 1.26451, cumulative = 58.6358
smoothSolver:  Solving for omega, Initial residual = 0.00266635, Final residual = 7.76182e-05, No Iterations 2
smoothSolver:  Solving for k, Initial residual = 0.21534, Final residual = 0.0204466, No Iterations 1
ExecutionTime = 9.50363 s  ClockTime = 10 s

Time = 72s

smoothSolver:  Solving for Ux, Initial residual = 0.00166666, Final residual = 0.000158082, No Iterations 1
smoothSolver:  Solving for Uy, Initial residual = 0.0147637, Final residual = 0.000470609, No Iterations 2
smoothSolver:  Solving for Uz, Initial residual = 0.0138148, Final residual = 0.000377022, No Iterations 2
DICPCG:  Solving for p, Initial residual = 0.106976, Final residual = 0.0103734, No Iterations 12
time step continuity errors : sum local = 5.531, global = 1.20452, cumulative = 59.8404
smoothSolver:  Solving for omega, Initial residual = 0.00261433, Final residual = 7.50887e-05, No Iterations 2
smoothSolver:  Solving for k, Initial residual = 0.217015, Final residual = 0.020957, No Iterations 1
ExecutionTime = 9.61797 s  ClockTime = 10 s

Time = 73s

smoothSolver:  Solving for Ux, Initial residual = 0.00164428, Final residual = 0.000157632, No Iterations 1
smoothSolver:  Solving for Uy, Initial residual = 0.0146945, Final residual = 0.000477147, No Iterations 2
smoothSolver:  Solving for Uz, Initial residual = 0.0138353, Final residual = 0.000383511, No Iterations 2
DICPCG:  Solving for p, Initial residual = 0.101153, Final residual = 0.00963988, No Iterations 11
time step continuity errors : sum local = 5.33022, global = 0.797177, cumulative = 60.6375
smoothSolver:  Solving for omega, Initial residual = 0.00253609, Final residual = 7.28171e-05, No Iterations 2
smoothSolver:  Solving for k, Initial residual = 0.208961, Final residual = 0.0197726, No Iterations 1
ExecutionTime = 9.7299 s  ClockTime = 10 s

Time = 74s

smoothSolver:  Solving for Ux, Initial residual = 0.00160873, Final residual = 0.000156774, No Iterations 1
smoothSolver:  Solving for Uy, Initial residual = 0.0145398, Final residual = 0.000482386, No Iterations 2
smoothSolver:  Solving for Uz, Initial residual = 0.0139318, Final residual = 0.000386425, No Iterations 2
DICPCG:  Solving for p, Initial residual = 0.0973888, Final residual = 0.00916613, No Iterations 6
time step continuity errors : sum local = 5.23848, global = 0.847999, cumulative = 61.4855
smoothSolver:  Solving for omega, Initial residual = 0.00244516, Final residual = 7.01201e-05, No Iterations 2
smoothSolver:  Solving for k, Initial residual = 0.206262, Final residual = 0.00339683, No Iterations 2
ExecutionTime = 9.84724 s  ClockTime = 10 s

Time = 75s

smoothSolver:  Solving for Ux, Initial residual = 0.00155898, Final residual = 0.000152779, No Iterations 1
smoothSolver:  Solving for Uy, Initial residual = 0.0143527, Final residual = 0.000484865, No Iterations 2
smoothSolver:  Solving for Uz, Initial residual = 0.0138532, Final residual = 0.000381071, No Iterations 2
DICPCG:  Solving for p, Initial residual = 0.0932536, Final residual = 0.00856287, No Iterations 8
time step continuity errors : sum local = 4.89376, global = 0.604838, cumulative = 62.0904
smoothSolver:  Solving for omega, Initial residual = 0.00236267, Final residual = 6.85009e-05, No Iterations 2
smoothSolver:  Solving for k, Initial residual = 0.206219, Final residual = 0.00351311, No Iterations 2
ExecutionTime = 9.96467 s  ClockTime = 10 s

Time = 76s

smoothSolver:  Solving for Ux, Initial residual = 0.00150991, Final residual = 0.000149497, No Iterations 1
smoothSolver:  Solving for Uy, Initial residual = 0.0142019, Final residual = 0.000492376, No Iterations 2
smoothSolver:  Solving for Uz, Initial residual = 0.0137781, Final residual = 0.000380251, No Iterations 2
DICPCG:  Solving for p, Initial residual = 0.0900324, Final residual = 0.00812376, No Iterations 8
time step continuity errors : sum local = 4.69693, global = 0.532389, cumulative = 62.6228
smoothSolver:  Solving for omega, Initial residual = 0.002273, Final residual = 6.60181e-05, No Iterations 2
smoothSolver:  Solving for k, Initial residual = 0.150952, Final residual = 0.00290146, No Iterations 2
ExecutionTime = 10.0896 s  ClockTime = 11 s

Time = 77s

smoothSolver:  Solving for Ux, Initial residual = 0.00145771, Final residual = 0.000145698, No Iterations 1
smoothSolver:  Solving for Uy, Initial residual = 0.0140717, Final residual = 0.000499103, No Iterations 2
smoothSolver:  Solving for Uz, Initial residual = 0.0136824, Final residual = 0.000378252, No Iterations 2
DICPCG:  Solving for p, Initial residual = 0.0902587, Final residual = 0.00895634, No Iterations 9
time step continuity errors : sum local = 4.99022, global = 0.691322, cumulative = 63.3141
smoothSolver:  Solving for omega, Initial residual = 0.00219151, Final residual = 6.33395e-05, No Iterations 2
smoothSolver:  Solving for k, Initial residual = 0.204987, Final residual = 0.0186413, No Iterations 1
ExecutionTime = 10.1913 s  ClockTime = 11 s

Time = 78s

smoothSolver:  Solving for Ux, Initial residual = 0.00140452, Final residual = 2.86782e-05, No Iterations 2
smoothSolver:  Solving for Uy, Initial residual = 0.0140094, Final residual = 0.000502362, No Iterations 2
smoothSolver:  Solving for Uz, Initial residual = 0.0135125, Final residual = 0.000374635, No Iterations 2
DICPCG:  Solving for p, Initial residual = 0.0878039, Final residual = 0.00870175, No Iterations 14
time step continuity errors : sum local = 4.9024, global = 1.13681, cumulative = 64.4509
smoothSolver:  Solving for omega, Initial residual = 0.00212006, Final residual = 6.0435e-05, No Iterations 2
smoothSolver:  Solving for k, Initial residual = 0.181325, Final residual = 0.00300218, No Iterations 2
ExecutionTime = 10.3041 s  ClockTime = 11 s

Time = 79s

smoothSolver:  Solving for Ux, Initial residual = 0.00133579, Final residual = 0.000132718, No Iterations 1
smoothSolver:  Solving for Uy, Initial residual = 0.0142279, Final residual = 0.000509096, No Iterations 2
smoothSolver:  Solving for Uz, Initial residual = 0.0135784, Final residual = 0.000380526, No Iterations 2
DICPCG:  Solving for p, Initial residual = 0.0888675, Final residual = 0.00869538, No Iterations 6
time step continuity errors : sum local = 4.71089, global = 0.982697, cumulative = 65.4336
smoothSolver:  Solving for omega, Initial residual = 0.00199795, Final residual = 5.60445e-05, No Iterations 2
smoothSolver:  Solving for k, Initial residual = 0.181986, Final residual = 0.00312079, No Iterations 2
ExecutionTime = 10.4057 s  ClockTime = 11 s

Time = 80s

smoothSolver:  Solving for Ux, Initial residual = 0.0012929, Final residual = 2.66395e-05, No Iterations 2
smoothSolver:  Solving for Uy, Initial residual = 0.014263, Final residual = 0.000499077, No Iterations 2
smoothSolver:  Solving for Uz, Initial residual = 0.0130923, Final residual = 0.000352144, No Iterations 2
DICPCG:  Solving for p, Initial residual = 0.0936095, Final residual = 0.00789674, No Iterations 8
time step continuity errors : sum local = 4.05943, global = 0.658267, cumulative = 66.0919
smoothSolver:  Solving for omega, Initial residual = 0.00188889, Final residual = 5.22786e-05, No Iterations 2
smoothSolver:  Solving for k, Initial residual = 0.172349, Final residual = 0.00283049, No Iterations 2
ExecutionTime = 10.5103 s  ClockTime = 11 s

Time = 81s

smoothSolver:  Solving for Ux, Initial residual = 0.00124031, Final residual = 2.61652e-05, No Iterations 2
smoothSolver:  Solving for Uy, Initial residual = 0.0143248, Final residual = 0.000490009, No Iterations 2
smoothSolver:  Solving for Uz, Initial residual = 0.0126543, Final residual = 0.000326001, No Iterations 2
DICPCG:  Solving for p, Initial residual = 0.0934691, Final residual = 0.00907227, No Iterations 9
time step continuity errors : sum local = 4.77021, global = 0.129615, cumulative = 66.2215
smoothSolver:  Solving for omega, Initial residual = 0.00175458, Final residual = 4.85083e-05, No Iterations 2
smoothSolver:  Solving for k, Initial residual = 0.157313, Final residual = 0.00291228, No Iterations 2
ExecutionTime = 10.6122 s  ClockTime = 11 s

Time = 82s

smoothSolver:  Solving for Ux, Initial residual = 0.00119478, Final residual = 2.57407e-05, No Iterations 2
smoothSolver:  Solving for Uy, Initial residual = 0.0142167, Final residual = 0.000474549, No Iterations 2
smoothSolver:  Solving for Uz, Initial residual = 0.0122948, Final residual = 0.000306428, No Iterations 2
DICPCG:  Solving for p, Initial residual = 0.0967208, Final residual = 0.00884625, No Iterations 10
time step continuity errors : sum local = 4.55068, global = -0.105662, cumulative = 66.1158
smoothSolver:  Solving for omega, Initial residual = 0.00162256, Final residual = 4.50579e-05, No Iterations 2
smoothSolver:  Solving for k, Initial residual = 0.205633, Final residual = 0.0198669, No Iterations 1
ExecutionTime = 10.7149 s  ClockTime = 11 s

Time = 83s

smoothSolver:  Solving for Ux, Initial residual = 0.00115522, Final residual = 2.5163e-05, No Iterations 2
smoothSolver:  Solving for Uy, Initial residual = 0.0139442, Final residual = 0.000468103, No Iterations 2
smoothSolver:  Solving for Uz, Initial residual = 0.0118917, Final residual = 0.000372557, No Iterations 2
DICPCG:  Solving for p, Initial residual = 0.304188, Final residual = 0.03005, No Iterations 40
time step continuity errors : sum local = 21.2058, global = -3.0826, cumulative = 63.0332
smoothSolver:  Solving for omega, Initial residual = 0.00194184, Final residual = 4.33261e-05, No Iterations 2
smoothSolver:  Solving for k, Initial residual = 0.427184, Final residual = 0.0208284, No Iterations 1
ExecutionTime = 10.844 s  ClockTime = 11 s

Time = 84s

smoothSolver:  Solving for Ux, Initial residual = 0.00680253, Final residual = 0.000166945, No Iterations 1
smoothSolver:  Solving for Uy, Initial residual = 0.186889, Final residual = 0.00290019, No Iterations 1
smoothSolver:  Solving for Uz, Initial residual = 0.352369, Final residual = 0.00265742, No Iterations 1
DICPCG:  Solving for p, Initial residual = 0.424183, Final residual = 0.0420428, No Iterations 18
time step continuity errors : sum local = 13.8802, global = 1.60559, cumulative = 64.6388
smoothSolver:  Solving for omega, Initial residual = 0.00168043, Final residual = 4.14491e-05, No Iterations 2
smoothSolver:  Solving for k, Initial residual = 0.308119, Final residual = 0.0197913, No Iterations 1
ExecutionTime = 10.9424 s  ClockTime = 11 s

Time = 85s

smoothSolver:  Solving for Ux, Initial residual = 0.00605272, Final residual = 0.00036947, No Iterations 1
smoothSolver:  Solving for Uy, Initial residual = 0.120388, Final residual = 0.00425558, No Iterations 1
smoothSolver:  Solving for Uz, Initial residual = 0.218991, Final residual = 0.00551862, No Iterations 1
DICPCG:  Solving for p, Initial residual = 0.382895, Final residual = 0.032498, No Iterations 25
time step continuity errors : sum local = 9.65942, global = -1.32969, cumulative = 63.3091
smoothSolver:  Solving for omega, Initial residual = 0.00138682, Final residual = 3.9185e-05, No Iterations 2
smoothSolver:  Solving for k, Initial residual = 0.268408, Final residual = 0.019414, No Iterations 1
ExecutionTime = 11.0596 s  ClockTime = 12 s

Time = 86s

smoothSolver:  Solving for Ux, Initial residual = 0.00384631, Final residual = 4.53452e-05, No Iterations 2
smoothSolver:  Solving for Uy, Initial residual = 0.0750646, Final residual = 0.00437248, No Iterations 1
smoothSolver:  Solving for Uz, Initial residual = 0.182773, Final residual = 0.00359507, No Iterations 1
DICPCG:  Solving for p, Initial residual = 0.291928, Final residual = 0.027693, No Iterations 28
time step continuity errors : sum local = 10.4974, global = -1.85317, cumulative = 61.4559
smoothSolver:  Solving for omega, Initial residual = 0.00128293, Final residual = 3.93508e-05, No Iterations 2
smoothSolver:  Solving for k, Initial residual = 0.283465, Final residual = 0.0248113, No Iterations 1
ExecutionTime = 11.1852 s  ClockTime = 12 s

Time = 87s

smoothSolver:  Solving for Ux, Initial residual = 0.00261781, Final residual = 3.38128e-05, No Iterations 2
smoothSolver:  Solving for Uy, Initial residual = 0.0408524, Final residual = 0.00338803, No Iterations 1
smoothSolver:  Solving for Uz, Initial residual = 0.104213, Final residual = 0.00300383, No Iterations 1
DICPCG:  Solving for p, Initial residual = 0.178, Final residual = 0.0151929, No Iterations 10
time step continuity errors : sum local = 12.7943, global = -2.61335, cumulative = 58.8426
smoothSolver:  Solving for omega, Initial residual = 0.00125534, Final residual = 3.93867e-05, No Iterations 2
smoothSolver:  Solving for k, Initial residual = 0.263195, Final residual = 0.00423684, No Iterations 2
ExecutionTime = 11.2879 s  ClockTime = 12 s

Time = 88s

smoothSolver:  Solving for Ux, Initial residual = 0.00223325, Final residual = 0.000204415, No Iterations 1
smoothSolver:  Solving for Uy, Initial residual = 0.0274277, Final residual = 0.000563309, No Iterations 2
smoothSolver:  Solving for Uz, Initial residual = 0.0473882, Final residual = 0.00261207, No Iterations 1
DICPCG:  Solving for p, Initial residual = 0.189394, Final residual = 0.0172602, No Iterations 16
time step continuity errors : sum local = 15.3829, global = 2.14854, cumulative = 60.9911
smoothSolver:  Solving for omega, Initial residual = 0.00126532, Final residual = 3.89437e-05, No Iterations 2
smoothSolver:  Solving for k, Initial residual = 0.234631, Final residual = 0.00441544, No Iterations 2
ExecutionTime = 11.3974 s  ClockTime = 12 s

Time = 89s

smoothSolver:  Solving for Ux, Initial residual = 0.00266389, Final residual = 0.000243848, No Iterations 1
smoothSolver:  Solving for Uy, Initial residual = 0.0300042, Final residual = 0.00067381, No Iterations 2
smoothSolver:  Solving for Uz, Initial residual = 0.0360995, Final residual = 0.00317013, No Iterations 1
DICPCG:  Solving for p, Initial residual = 0.168047, Final residual = 0.0163578, No Iterations 17
time step continuity errors : sum local = 14.1177, global = 2.3319, cumulative = 63.323
smoothSolver:  Solving for omega, Initial residual = 0.00123545, Final residual = 3.74241e-05, No Iterations 2
smoothSolver:  Solving for k, Initial residual = 0.223227, Final residual = 0.00461294, No Iterations 2
ExecutionTime = 11.507 s  ClockTime = 12 s

Time = 90s

smoothSolver:  Solving for Ux, Initial residual = 0.00211053, Final residual = 3.86072e-05, No Iterations 2
smoothSolver:  Solving for Uy, Initial residual = 0.0236958, Final residual = 0.000589006, No Iterations 2
smoothSolver:  Solving for Uz, Initial residual = 0.0304318, Final residual = 0.00058735, No Iterations 2
DICPCG:  Solving for p, Initial residual = 0.183581, Final residual = 0.0162901, No Iterations 7
time step continuity errors : sum local = 11.3537, global = 3.62694, cumulative = 66.95
smoothSolver:  Solving for omega, Initial residual = 0.00122339, Final residual = 3.71809e-05, No Iterations 2
smoothSolver:  Solving for k, Initial residual = 0.207005, Final residual = 0.00486687, No Iterations 2
ExecutionTime = 11.6117 s  ClockTime = 12 s

Time = 91s

smoothSolver:  Solving for Ux, Initial residual = 0.0015305, Final residual = 3.21735e-05, No Iterations 2
smoothSolver:  Solving for Uy, Initial residual = 0.0186229, Final residual = 0.000496784, No Iterations 2
smoothSolver:  Solving for Uz, Initial residual = 0.0250539, Final residual = 0.000528542, No Iterations 2
DICPCG:  Solving for p, Initial residual = 0.186429, Final residual = 0.0185366, No Iterations 13
time step continuity errors : sum local = 12.316, global = 0.390619, cumulative = 67.3406
smoothSolver:  Solving for omega, Initial residual = 0.00120424, Final residual = 3.66191e-05, No Iterations 2
smoothSolver:  Solving for k, Initial residual = 0.228427, Final residual = 0.00540866, No Iterations 2
ExecutionTime = 11.7179 s  ClockTime = 12 s

Time = 92s

smoothSolver:  Solving for Ux, Initial residual = 0.0014291, Final residual = 3.02229e-05, No Iterations 2
smoothSolver:  Solving for Uy, Initial residual = 0.0169819, Final residual = 0.000475666, No Iterations 2
smoothSolver:  Solving for Uz, Initial residual = 0.0214358, Final residual = 0.000453476, No Iterations 2
DICPCG:  Solving for p, Initial residual = 0.205075, Final residual = 0.017704, No Iterations 14
time step continuity errors : sum local = 10.2555, global = -0.795598, cumulative = 66.545
smoothSolver:  Solving for omega, Initial residual = 0.0012232, Final residual = 3.71561e-05, No Iterations 2
smoothSolver:  Solving for k, Initial residual = 0.214686, Final residual = 0.00466805, No Iterations 2
ExecutionTime = 11.826 s  ClockTime = 12 s

Time = 93s

smoothSolver:  Solving for Ux, Initial residual = 0.00149704, Final residual = 3.17613e-05, No Iterations 2
smoothSolver:  Solving for Uy, Initial residual = 0.0176613, Final residual = 0.000526629, No Iterations 2
smoothSolver:  Solving for Uz, Initial residual = 0.0205212, Final residual = 0.000448217, No Iterations 2
DICPCG:  Solving for p, Initial residual = 0.166787, Final residual = 0.014886, No Iterations 7
time step continuity errors : sum local = 9.73603, global = -0.735313, cumulative = 65.8097
smoothSolver:  Solving for omega, Initial residual = 0.00124928, Final residual = 3.85488e-05, No Iterations 2
smoothSolver:  Solving for k, Initial residual = 0.228379, Final residual = 0.00617995, No Iterations 2
ExecutionTime = 11.9267 s  ClockTime = 12 s

Time = 94s

smoothSolver:  Solving for Ux, Initial residual = 0.00144384, Final residual = 2.97666e-05, No Iterations 2
smoothSolver:  Solving for Uy, Initial residual = 0.0170301, Final residual = 0.000504289, No Iterations 2
smoothSolver:  Solving for Uz, Initial residual = 0.0197181, Final residual = 0.000455763, No Iterations 2
DICPCG:  Solving for p, Initial residual = 0.161281, Final residual = 0.0157736, No Iterations 11
time step continuity errors : sum local = 9.97794, global = -1.12027, cumulative = 64.6894
smoothSolver:  Solving for omega, Initial residual = 0.00126424, Final residual = 3.87129e-05, No Iterations 2
smoothSolver:  Solving for k, Initial residual = 0.201572, Final residual = 0.00476714, No Iterations 2
ExecutionTime = 12.0316 s  ClockTime = 13 s

Time = 95s

smoothSolver:  Solving for Ux, Initial residual = 0.0013587, Final residual = 0.000133769, No Iterations 1
smoothSolver:  Solving for Uy, Initial residual = 0.0149093, Final residual = 0.000439224, No Iterations 2
smoothSolver:  Solving for Uz, Initial residual = 0.0204379, Final residual = 0.000474615, No Iterations 2
DICPCG:  Solving for p, Initial residual = 0.146121, Final residual = 0.0132679, No Iterations 13
time step continuity errors : sum local = 8.14258, global = -0.933816, cumulative = 63.7556
smoothSolver:  Solving for omega, Initial residual = 0.00128599, Final residual = 3.90298e-05, No Iterations 2
smoothSolver:  Solving for k, Initial residual = 0.204181, Final residual = 0.00481676, No Iterations 2
ExecutionTime = 12.1417 s  ClockTime = 13 s

Time = 96s

smoothSolver:  Solving for Ux, Initial residual = 0.00135456, Final residual = 0.000134556, No Iterations 1
smoothSolver:  Solving for Uy, Initial residual = 0.0136683, Final residual = 0.000406365, No Iterations 2
smoothSolver:  Solving for Uz, Initial residual = 0.020109, Final residual = 0.000480482, No Iterations 2
DICPCG:  Solving for p, Initial residual = 0.133521, Final residual = 0.0128204, No Iterations 10
time step continuity errors : sum local = 8.00107, global = 0.960653, cumulative = 64.7162
smoothSolver:  Solving for omega, Initial residual = 0.00129528, Final residual = 3.97987e-05, No Iterations 2
smoothSolver:  Solving for k, Initial residual = 0.164669, Final residual = 0.00436226, No Iterations 2
ExecutionTime = 12.2495 s  ClockTime = 13 s

Time = 97s

smoothSolver:  Solving for Ux, Initial residual = 0.0013299, Final residual = 2.77164e-05, No Iterations 2
smoothSolver:  Solving for Uy, Initial residual = 0.0134217, Final residual = 0.000405409, No Iterations 2
smoothSolver:  Solving for Uz, Initial residual = 0.0176497, Final residual = 0.000422095, No Iterations 2
DICPCG:  Solving for p, Initial residual = 0.13598, Final residual = 0.0132673, No Iterations 11
time step continuity errors : sum local = 7.98597, global = 2.12056, cumulative = 66.8368
smoothSolver:  Solving for omega, Initial residual = 0.00134491, Final residual = 4.24168e-05, No Iterations 2
smoothSolver:  Solving for k, Initial residual = 0.14208, Final residual = 0.00346116, No Iterations 2
ExecutionTime = 12.3577 s  ClockTime = 13 s

Time = 98s

smoothSolver:  Solving for Ux, Initial residual = 0.0012852, Final residual = 8.0307e-05, No Iterations 2
smoothSolver:  Solving for Uy, Initial residual = 0.0137339, Final residual = 0.000611146, No Iterations 2
smoothSolver:  Solving for Uz, Initial residual = 0.0163103, Final residual = 0.00146297, No Iterations 2
DICPCG:  Solving for p, Initial residual = 0.534386, Final residual = 0.0497073, No Iterations 57
time step continuity errors : sum local = 52.4476, global = -7.96851, cumulative = 58.8683
smoothSolver:  Solving for omega, Initial residual = 0.00409624, Final residual = 0.000309788, No Iterations 1
smoothSolver:  Solving for k, Initial residual = 0.534503, Final residual = 0.032966, No Iterations 1
ExecutionTime = 12.5047 s  ClockTime = 13 s

Time = 99s

smoothSolver:  Solving for Ux, Initial residual = 0.295699, Final residual = 0.0103869, No Iterations 1
smoothSolver:  Solving for Uy, Initial residual = 0.447944, Final residual = 0.0264477, No Iterations 1
smoothSolver:  Solving for Uz, Initial residual = 0.513487, Final residual = 0.0196436, No Iterations 1
DICPCG:  Solving for p, Initial residual = 0.336492, Final residual = 0.0325602, No Iterations 38
time step continuity errors : sum local = 51.4572, global = 7.68381, cumulative = 66.5521
smoothSolver:  Solving for omega, Initial residual = 0.00449457, Final residual = 0.000304845, No Iterations 1
smoothSolver:  Solving for k, Initial residual = 0.352979, Final residual = 0.0151652, No Iterations 1
ExecutionTime = 12.6349 s  ClockTime = 13 s

Time = 100s

smoothSolver:  Solving for Ux, Initial residual = 0.193581, Final residual = 0.00620315, No Iterations 1
smoothSolver:  Solving for Uy, Initial residual = 0.244105, Final residual = 0.0166923, No Iterations 1
smoothSolver:  Solving for Uz, Initial residual = 0.322387, Final residual = 0.00940567, No Iterations 1
DICPCG:  Solving for p, Initial residual = 0.132249, Final residual = 0.0124812, No Iterations 37
time step continuity errors : sum local = 62.4317, global = 11.5171, cumulative = 78.0691
smoothSolver:  Solving for omega, Initial residual = 0.00607489, Final residual = 0.000456728, No Iterations 1
smoothSolver:  Solving for k, Initial residual = 0.298863, Final residual = 0.0157598, No Iterations 1
ExecutionTime = 12.9939 s  ClockTime = 13 s

Time = 101s

smoothSolver:  Solving for Ux, Initial residual = 0.151079, Final residual = 0.00801712, No Iterations 1
smoothSolver:  Solving for Uy, Initial residual = 0.211522, Final residual = 0.00489291, No Iterations 2
smoothSolver:  Solving for Uz, Initial residual = 0.276128, Final residual = 0.0148348, No Iterations 1
DICPCG:  Solving for p, Initial residual = 0.090268, Final residual = 0.00857243, No Iterations 30
time step continuity errors : sum local = 68.6806, global = 22.0502, cumulative = 100.119
smoothSolver:  Solving for omega, Initial residual = 0.00608983, Final residual = 0.00051651, No Iterations 1
[...]
time step continuity errors : sum local = 4.33856, global = 0.881782, cumulative = 127.537
smoothSolver:  Solving for omega, Initial residual = 0.00323864, Final residual = 5.02644e-05, No Iterations 2
smoothSolver:  Solving for k, Initial residual = 0.0821099, Final residual = 0.00147253, No Iterations 2
ExecutionTime = 32.4009 s  ClockTime = 33 s

Time = 276s

smoothSolver:  Solving for Ux, Initial residual = 0.00182545, Final residual = 3.59737e-05, No Iterations 2
smoothSolver:  Solving for Uy, Initial residual = 0.00845188, Final residual = 0.000180861, No Iterations 2
smoothSolver:  Solving for Uz, Initial residual = 0.00640629, Final residual = 0.000125238, No Iterations 2
DICPCG:  Solving for p, Initial residual = 0.0471725, Final residual = 0.0041173, No Iterations 6
time step continuity errors : sum local = 4.20747, global = 1.31551, cumulative = 128.852
smoothSolver:  Solving for omega, Initial residual = 0.00324711, Final residual = 0.000318103, No Iterations 1
smoothSolver:  Solving for k, Initial residual = 0.0796125, Final residual = 0.00136787, No Iterations 2
ExecutionTime = 32.5074 s  ClockTime = 33 s

Time = 277s

smoothSolver:  Solving for Ux, Initial residual = 0.0018507, Final residual = 3.6257e-05, No Iterations 2
smoothSolver:  Solving for Uy, Initial residual = 0.00856859, Final residual = 0.000180184, No Iterations 2
smoothSolver:  Solving for Uz, Initial residual = 0.00646619, Final residual = 0.000124944, No Iterations 2
DICPCG:  Solving for p, Initial residual = 0.0469534, Final residual = 0.00370608, No Iterations 7
time step continuity errors : sum local = 3.84108, global = 1.14081, cumulative = 129.993
smoothSolver:  Solving for omega, Initial residual = 0.00335984, Final residual = 0.000329233, No Iterations 1
smoothSolver:  Solving for k, Initial residual = 0.08022, Final residual = 0.00137903, No Iterations 2
ExecutionTime = 32.6108 s  ClockTime = 33 s

Time = 278s

smoothSolver:  Solving for Ux, Initial residual = 0.00188714, Final residual = 3.66804e-05, No Iterations 2
smoothSolver:  Solving for Uy, Initial residual = 0.00868859, Final residual = 0.000180398, No Iterations 2
smoothSolver:  Solving for Uz, Initial residual = 0.00653456, Final residual = 0.000124439, No Iterations 2
DICPCG:  Solving for p, Initial residual = 0.0481879, Final residual = 0.00448088, No Iterations 7
time step continuity errors : sum local = 4.52634, global = 1.05238, cumulative = 131.046
smoothSolver:  Solving for omega, Initial residual = 0.00347178, Final residual = 0.000337533, No Iterations 1
smoothSolver:  Solving for k, Initial residual = 0.069734, Final residual = 0.00135281, No Iterations 2
ExecutionTime = 32.7066 s  ClockTime = 33 s

Time = 279s

smoothSolver:  Solving for Ux, Initial residual = 0.0019152, Final residual = 3.73313e-05, No Iterations 2
smoothSolver:  Solving for Uy, Initial residual = 0.00878591, Final residual = 0.000180556, No Iterations 2
smoothSolver:  Solving for Uz, Initial residual = 0.00659677, Final residual = 0.000125819, No Iterations 2
DICPCG:  Solving for p, Initial residual = 0.0476272, Final residual = 0.00475437, No Iterations 7
time step continuity errors : sum local = 4.76521, global = 0.966528, cumulative = 132.012
smoothSolver:  Solving for omega, Initial residual = 0.00357264, Final residual = 0.000344194, No Iterations 1
smoothSolver:  Solving for k, Initial residual = 0.0665656, Final residual = 0.00128757, No Iterations 2
ExecutionTime = 32.8051 s  ClockTime = 33 s

Time = 280s

smoothSolver:  Solving for Ux, Initial residual = 0.00194346, Final residual = 3.81272e-05, No Iterations 2
smoothSolver:  Solving for Uy, Initial residual = 0.00882862, Final residual = 0.000179633, No Iterations 2
smoothSolver:  Solving for Uz, Initial residual = 0.0066054, Final residual = 0.000128258, No Iterations 2
DICPCG:  Solving for p, Initial residual = 0.047734, Final residual = 0.0046977, No Iterations 7
time step continuity errors : sum local = 4.62072, global = 0.858858, cumulative = 132.871
smoothSolver:  Solving for omega, Initial residual = 0.00366196, Final residual = 0.000350164, No Iterations 1
smoothSolver:  Solving for k, Initial residual = 0.0640529, Final residual = 0.00120563, No Iterations 2
ExecutionTime = 32.9001 s  ClockTime = 33 s

Time = 281s

smoothSolver:  Solving for Ux, Initial residual = 0.00197402, Final residual = 3.89122e-05, No Iterations 2
smoothSolver:  Solving for Uy, Initial residual = 0.00883181, Final residual = 0.000178155, No Iterations 2
smoothSolver:  Solving for Uz, Initial residual = 0.00665818, Final residual = 0.000130544, No Iterations 2
DICPCG:  Solving for p, Initial residual = 0.0477843, Final residual = 0.004544, No Iterations 7
time step continuity errors : sum local = 4.42718, global = 0.737095, cumulative = 133.608
smoothSolver:  Solving for omega, Initial residual = 0.00374163, Final residual = 0.000356742, No Iterations 1
smoothSolver:  Solving for k, Initial residual = 0.063292, Final residual = 0.00120807, No Iterations 2
ExecutionTime = 32.9996 s  ClockTime = 34 s

Time = 282s

smoothSolver:  Solving for Ux, Initial residual = 0.00199652, Final residual = 3.95589e-05, No Iterations 2
smoothSolver:  Solving for Uy, Initial residual = 0.00880718, Final residual = 0.000176361, No Iterations 2
smoothSolver:  Solving for Uz, Initial residual = 0.00672506, Final residual = 0.000132717, No Iterations 2
DICPCG:  Solving for p, Initial residual = 0.0479664, Final residual = 0.0047045, No Iterations 7
time step continuity errors : sum local = 4.61129, global = 0.63248, cumulative = 134.241
smoothSolver:  Solving for omega, Initial residual = 0.00382027, Final residual = 0.000360735, No Iterations 1
smoothSolver:  Solving for k, Initial residual = 0.0657725, Final residual = 0.00125127, No Iterations 2
ExecutionTime = 33.0981 s  ClockTime = 34 s

Time = 283s

smoothSolver:  Solving for Ux, Initial residual = 0.00200926, Final residual = 3.96581e-05, No Iterations 2
smoothSolver:  Solving for Uy, Initial residual = 0.00878104, Final residual = 0.000174646, No Iterations 2
smoothSolver:  Solving for Uz, Initial residual = 0.00678569, Final residual = 0.000134353, No Iterations 2
DICPCG:  Solving for p, Initial residual = 0.047996, Final residual = 0.00418968, No Iterations 8
time step continuity errors : sum local = 4.1072, global = 0.380248, cumulative = 134.621
smoothSolver:  Solving for omega, Initial residual = 0.00389734, Final residual = 0.000363301, No Iterations 1
smoothSolver:  Solving for k, Initial residual = 0.105253, Final residual = 0.00985817, No Iterations 1
ExecutionTime = 33.1934 s  ClockTime = 34 s

Time = 284s

smoothSolver:  Solving for Ux, Initial residual = 0.00202065, Final residual = 3.95521e-05, No Iterations 2
smoothSolver:  Solving for Uy, Initial residual = 0.00876945, Final residual = 0.000174355, No Iterations 2
smoothSolver:  Solving for Uz, Initial residual = 0.00681281, Final residual = 0.000135526, No Iterations 2
DICPCG:  Solving for p, Initial residual = 0.04786, Final residual = 0.0043824, No Iterations 7
time step continuity errors : sum local = 4.21427, global = 0.230233, cumulative = 134.851
smoothSolver:  Solving for omega, Initial residual = 0.00394813, Final residual = 0.000363981, No Iterations 1
smoothSolver:  Solving for k, Initial residual = 0.0865335, Final residual = 0.00817013, No Iterations 1
ExecutionTime = 33.2875 s  ClockTime = 34 s

Time = 285s

smoothSolver:  Solving for Ux, Initial residual = 0.00201559, Final residual = 3.9345e-05, No Iterations 2
smoothSolver:  Solving for Uy, Initial residual = 0.00869825, Final residual = 0.000173358, No Iterations 2
smoothSolver:  Solving for Uz, Initial residual = 0.00679511, Final residual = 0.000136737, No Iterations 2
DICPCG:  Solving for p, Initial residual = 0.0477784, Final residual = 0.00474214, No Iterations 6
time step continuity errors : sum local = 4.53668, global = 0.0711173, cumulative = 134.922
smoothSolver:  Solving for omega, Initial residual = 0.0040205, Final residual = 0.000364667, No Iterations 1
smoothSolver:  Solving for k, Initial residual = 0.107383, Final residual = 0.0103132, No Iterations 1
ExecutionTime = 33.3834 s  ClockTime = 34 s

Time = 286s

smoothSolver:  Solving for Ux, Initial residual = 0.00201048, Final residual = 3.9042e-05, No Iterations 2
smoothSolver:  Solving for Uy, Initial residual = 0.00859813, Final residual = 0.000171393, No Iterations 2
smoothSolver:  Solving for Uz, Initial residual = 0.00675289, Final residual = 0.000137209, No Iterations 2
DICPCG:  Solving for p, Initial residual = 0.0463703, Final residual = 0.00449865, No Iterations 7
time step continuity errors : sum local = 4.41018, global = 0.0148102, cumulative = 134.937
smoothSolver:  Solving for omega, Initial residual = 0.00404244, Final residual = 0.000362589, No Iterations 1
smoothSolver:  Solving for k, Initial residual = 0.0921408, Final residual = 0.00854733, No Iterations 1
ExecutionTime = 33.4808 s  ClockTime = 34 s

Time = 287s

smoothSolver:  Solving for Ux, Initial residual = 0.00201299, Final residual = 3.87026e-05, No Iterations 2
smoothSolver:  Solving for Uy, Initial residual = 0.00853101, Final residual = 0.000171209, No Iterations 2
smoothSolver:  Solving for Uz, Initial residual = 0.00667515, Final residual = 0.000136314, No Iterations 2
DICPCG:  Solving for p, Initial residual = 0.0500435, Final residual = 0.00483998, No Iterations 7
time step continuity errors : sum local = 4.52387, global = 0.0495606, cumulative = 134.987
smoothSolver:  Solving for omega, Initial residual = 0.00407388, Final residual = 0.000358154, No Iterations 1
smoothSolver:  Solving for k, Initial residual = 0.074085, Final residual = 0.0012922, No Iterations 2
ExecutionTime = 33.5799 s  ClockTime = 34 s

Time = 288s

smoothSolver:  Solving for Ux, Initial residual = 0.00201902, Final residual = 3.82661e-05, No Iterations 2
smoothSolver:  Solving for Uy, Initial residual = 0.00850256, Final residual = 0.000171, No Iterations 2
smoothSolver:  Solving for Uz, Initial residual = 0.00661974, Final residual = 0.000134949, No Iterations 2
DICPCG:  Solving for p, Initial residual = 0.0502731, Final residual = 0.00443989, No Iterations 7
time step continuity errors : sum local = 4.11118, global = 0.135544, cumulative = 135.122
smoothSolver:  Solving for omega, Initial residual = 0.00406043, Final residual = 0.000349812, No Iterations 1
smoothSolver:  Solving for k, Initial residual = 0.0673983, Final residual = 0.00117586, No Iterations 2
ExecutionTime = 33.6991 s  ClockTime = 34 s

Time = 289s

smoothSolver:  Solving for Ux, Initial residual = 0.00201839, Final residual = 3.77811e-05, No Iterations 2
smoothSolver:  Solving for Uy, Initial residual = 0.00844904, Final residual = 0.000168992, No Iterations 2
smoothSolver:  Solving for Uz, Initial residual = 0.00647653, Final residual = 0.000132772, No Iterations 2
DICPCG:  Solving for p, Initial residual = 0.0492633, Final residual = 0.00477631, No Iterations 4
time step continuity errors : sum local = 4.4765, global = 0.330832, cumulative = 135.453
smoothSolver:  Solving for omega, Initial residual = 0.00402609, Final residual = 0.00033797, No Iterations 1
smoothSolver:  Solving for k, Initial residual = 0.113394, Final residual = 0.00208255, No Iterations 2
ExecutionTime = 33.7942 s  ClockTime = 34 s

Time = 290s

smoothSolver:  Solving for Ux, Initial residual = 0.00200553, Final residual = 3.71466e-05, No Iterations 2
smoothSolver:  Solving for Uy, Initial residual = 0.00832653, Final residual = 0.000163876, No Iterations 2
smoothSolver:  Solving for Uz, Initial residual = 0.0063507, Final residual = 0.000131696, No Iterations 2
DICPCG:  Solving for p, Initial residual = 0.047729, Final residual = 0.00467912, No Iterations 7
time step continuity errors : sum local = 4.54906, global = 0.639891, cumulative = 136.093
smoothSolver:  Solving for omega, Initial residual = 0.0039547, Final residual = 0.000325288, No Iterations 1
smoothSolver:  Solving for k, Initial residual = 0.0880529, Final residual = 0.00845484, No Iterations 1
ExecutionTime = 33.8952 s  ClockTime = 34 s

Time = 291s

smoothSolver:  Solving for Ux, Initial residual = 0.00199237, Final residual = 3.67284e-05, No Iterations 2
smoothSolver:  Solving for Uy, Initial residual = 0.00831935, Final residual = 0.000164438, No Iterations 2
smoothSolver:  Solving for Uz, Initial residual = 0.00612959, Final residual = 0.000124118, No Iterations 2
DICPCG:  Solving for p, Initial residual = 0.0508498, Final residual = 0.00504018, No Iterations 7
time step continuity errors : sum local = 4.7366, global = 0.975719, cumulative = 137.069
smoothSolver:  Solving for omega, Initial residual = 0.00387885, Final residual = 0.000313098, No Iterations 1
smoothSolver:  Solving for k, Initial residual = 0.0779116, Final residual = 0.00775907, No Iterations 1
ExecutionTime = 33.9903 s  ClockTime = 35 s

Time = 292s

smoothSolver:  Solving for Ux, Initial residual = 0.00197395, Final residual = 3.61038e-05, No Iterations 2
smoothSolver:  Solving for Uy, Initial residual = 0.00833788, Final residual = 0.000164801, No Iterations 2
smoothSolver:  Solving for Uz, Initial residual = 0.00594025, Final residual = 0.000118084, No Iterations 2
DICPCG:  Solving for p, Initial residual = 0.050765, Final residual = 0.00488135, No Iterations 8
time step continuity errors : sum local = 4.52535, global = 1.35375, cumulative = 138.422
smoothSolver:  Solving for omega, Initial residual = 0.00381458, Final residual = 0.000306206, No Iterations 1
smoothSolver:  Solving for k, Initial residual = 0.113091, Final residual = 0.00999483, No Iterations 1
ExecutionTime = 34.089 s  ClockTime = 35 s

Time = 293s

smoothSolver:  Solving for Ux, Initial residual = 0.00194935, Final residual = 0.000192698, No Iterations 1
smoothSolver:  Solving for Uy, Initial residual = 0.00829284, Final residual = 0.000163412, No Iterations 2
smoothSolver:  Solving for Uz, Initial residual = 0.00575403, Final residual = 0.000114134, No Iterations 2
DICPCG:  Solving for p, Initial residual = 0.0508046, Final residual = 0.00458276, No Iterations 4
time step continuity errors : sum local = 4.16913, global = 1.95571, cumulative = 140.378
smoothSolver:  Solving for omega, Initial residual = 0.00370018, Final residual = 0.000296903, No Iterations 1
smoothSolver:  Solving for k, Initial residual = 0.113206, Final residual = 0.0111786, No Iterations 1
ExecutionTime = 34.202 s  ClockTime = 35 s

Time = 294s

smoothSolver:  Solving for Ux, Initial residual = 0.00191614, Final residual = 0.00018945, No Iterations 1
smoothSolver:  Solving for Uy, Initial residual = 0.00804458, Final residual = 0.000155972, No Iterations 2
smoothSolver:  Solving for Uz, Initial residual = 0.00556136, Final residual = 0.000110764, No Iterations 2
DICPCG:  Solving for p, Initial residual = 0.049157, Final residual = 0.00475854, No Iterations 19
time step continuity errors : sum local = 4.35625, global = 0.636499, cumulative = 141.015
smoothSolver:  Solving for omega, Initial residual = 0.00362385, Final residual = 0.0002915, No Iterations 1
smoothSolver:  Solving for k, Initial residual = 0.117289, Final residual = 0.0114809, No Iterations 1
ExecutionTime = 34.3196 s  ClockTime = 35 s

Time = 295s

smoothSolver:  Solving for Ux, Initial residual = 0.00188549, Final residual = 0.000185681, No Iterations 1
smoothSolver:  Solving for Uy, Initial residual = 0.00804848, Final residual = 0.000158178, No Iterations 2
smoothSolver:  Solving for Uz, Initial residual = 0.00558853, Final residual = 0.000109752, No Iterations 2
DICPCG:  Solving for p, Initial residual = 0.05551, Final residual = 0.00540917, No Iterations 5
time step continuity errors : sum local = 4.39745, global = 1.12045, cumulative = 142.135
smoothSolver:  Solving for omega, Initial residual = 0.00349867, Final residual = 0.000281785, No Iterations 1
smoothSolver:  Solving for k, Initial residual = 0.124729, Final residual = 0.0124302, No Iterations 1
ExecutionTime = 34.408 s  ClockTime = 35 s

Time = 296s

smoothSolver:  Solving for Ux, Initial residual = 0.00183289, Final residual = 0.000180856, No Iterations 1
smoothSolver:  Solving for Uy, Initial residual = 0.00791655, Final residual = 0.000155213, No Iterations 2
smoothSolver:  Solving for Uz, Initial residual = 0.00530484, Final residual = 0.000102386, No Iterations 2
DICPCG:  Solving for p, Initial residual = 0.0546319, Final residual = 0.00499328, No Iterations 8
time step continuity errors : sum local = 4.01898, global = 0.124564, cumulative = 142.26
smoothSolver:  Solving for omega, Initial residual = 0.00338287, Final residual = 0.000273888, No Iterations 1
smoothSolver:  Solving for k, Initial residual = 0.116146, Final residual = 0.00211998, No Iterations 2
ExecutionTime = 34.5023 s  ClockTime = 35 s

Time = 297s

smoothSolver:  Solving for Ux, Initial residual = 0.00177157, Final residual = 0.000174398, No Iterations 1
smoothSolver:  Solving for Uy, Initial residual = 0.00791571, Final residual = 0.000157866, No Iterations 2
smoothSolver:  Solving for Uz, Initial residual = 0.00514026, Final residual = 0.000101714, No Iterations 2
DICPCG:  Solving for p, Initial residual = 0.0536092, Final residual = 0.00528371, No Iterations 10
time step continuity errors : sum local = 4.23399, global = -0.564969, cumulative = 141.695
smoothSolver:  Solving for omega, Initial residual = 0.00324957, Final residual = 0.000264112, No Iterations 1
smoothSolver:  Solving for k, Initial residual = 0.136381, Final residual = 0.00233509, No Iterations 2
ExecutionTime = 34.5984 s  ClockTime = 35 s

Time = 298s

smoothSolver:  Solving for Ux, Initial residual = 0.0017093, Final residual = 0.000167862, No Iterations 1
smoothSolver:  Solving for Uy, Initial residual = 0.00788456, Final residual = 0.000160723, No Iterations 2
smoothSolver:  Solving for Uz, Initial residual = 0.00512073, Final residual = 0.000106961, No Iterations 2
DICPCG:  Solving for p, Initial residual = 0.0524629, Final residual = 0.0050124, No Iterations 5
time step continuity errors : sum local = 4.10494, global = -0.904741, cumulative = 140.79
smoothSolver:  Solving for omega, Initial residual = 0.00317653, Final residual = 0.000255811, No Iterations 1
smoothSolver:  Solving for k, Initial residual = 0.118902, Final residual = 0.00227084, No Iterations 2
ExecutionTime = 34.6935 s  ClockTime = 35 s

Time = 299s

smoothSolver:  Solving for Ux, Initial residual = 0.00163611, Final residual = 0.000161139, No Iterations 1
smoothSolver:  Solving for Uy, Initial residual = 0.00763262, Final residual = 0.000154641, No Iterations 2
smoothSolver:  Solving for Uz, Initial residual = 0.00508145, Final residual = 0.000108308, No Iterations 2
DICPCG:  Solving for p, Initial residual = 0.0526775, Final residual = 0.00487135, No Iterations 11
time step continuity errors : sum local = 3.96804, global = -0.766321, cumulative = 140.023
smoothSolver:  Solving for omega, Initial residual = 0.00310129, Final residual = 0.00024868, No Iterations 1
smoothSolver:  Solving for k, Initial residual = 0.11739, Final residual = 0.0112772, No Iterations 1
ExecutionTime = 34.7932 s  ClockTime = 35 s

Time = 300s

smoothSolver:  Solving for Ux, Initial residual = 0.00159965, Final residual = 0.000157244, No Iterations 1
smoothSolver:  Solving for Uy, Initial residual = 0.00744579, Final residual = 0.000148286, No Iterations 2
smoothSolver:  Solving for Uz, Initial residual = 0.00501456, Final residual = 0.000104443, No Iterations 2
DICPCG:  Solving for p, Initial residual = 0.0497241, Final residual = 0.00492114, No Iterations 11
time step continuity errors : sum local = 4.11635, global = -0.618273, cumulative = 139.405
smoothSolver:  Solving for omega, Initial residual = 0.00298807, Final residual = 0.00023944, No Iterations 1
smoothSolver:  Solving for k, Initial residual = 0.0935753, Final residual = 0.00178571, No Iterations 2
ExecutionTime = 35.1169 s  ClockTime = 36 s

End

