/*---------------------------------------------------------------------------*\
  =========                 |
  \\      /  F ield         | OpenFOAM: The Open Source CFD Toolbox
   \\    /   O peration     | Website:  https://openfoam.org
    \\  /    A nd           | Version:  13
     \\/     M anipulation  |
\*---------------------------------------------------------------------------*/
Build  : 13-cde978a97c93
Exec   : foamRun
Date   : Mar 05 2026
Time   : 21:23:40
Host   : "JOO-DESKTOP"
PID    : 163539
I/O    : uncollated
Case   : /home/joo/OpenFOAM/joo-13/run/trackB_propellerIGE_v13/cases/sweep_sensitivity_lowJtilt/hR1
nProcs : 1
sigFpe : Enabling floating point exception trapping (FOAM_SIGFPE).
fileModificationChecking : Monitoring run-time modified files using timeStampMaster (fileModificationSkew 10)
allowSystemOperations : Allowing user-supplied system call operations

// * * * * * * * * * * * * * * * * * * * * * * * * * * * * * * * * * * * * * //
Create time

Create mesh for time = 0

Selecting solver incompressibleFluid
Selecting viscosity model constant
Selecting turbulence model type RAS
    Selecting RAS turbulence model kOmegaSST
No MRF models present

Selecting patchDistMethod meshWave
Creating fvModels from "constant/fvModels"

Selecting finite volume model type propellerDisk
    Name: diskSource

SIMPLE: Convergence criteria found
        p: tolerance 0.0001
        U: tolerance 1e-05
        k: tolerance 1e-05
        omega: tolerance 1e-05


SIMPLE: Operating solver in steady-state mode with 1 outer corrector
SIMPLE: Operating solver in SIMPLE mode



Starting time loop

Reading set description:
    line

volFieldValue Uavg_propeller read:
    number of cells = 104
    volume = 0.0126953
    operation = volAverage

surfaceFieldValue phi_farField read:
    number of faces = 24576
    area = 48
    operation = orientedSum

surfaceFieldValue phi_top read:
    number of faces = 4096
    area = 16
    operation = orientedSum

volFieldValue Uavg_propeller write:
    volAverage(propeller) of U = (0 0 -0.01)

surfaceFieldValue phi_farField write:
    orientedSum(farField) of phi = 0

surfaceFieldValue phi_top write:
    orientedSum(top) of phi = 0

Time = 1s

--> FOAM Warning : 
    From function void Foam::Function1s::Table<Type>::checkX(Foam::scalar) const [with Type = Foam::Vector2D<double>; Foam::scalar = double]
    in file lnInclude/Table.C at line 107
    "value (-105.028) underflow"

smoothSolver:  Solving for Ux, Initial residual = 1, Final residual = 0.0294851, No Iterations 1
smoothSolver:  Solving for Uy, Initial residual = 1, Final residual = 0.0294851, No Iterations 1
smoothSolver:  Solving for Uz, Initial residual = 1, Final residual = 0.0300268, No Iterations 1
DICPCG:  Solving for p, Initial residual = 1, Final residual = 0.0497744, No Iterations 18
time step continuity errors : sum local = 0.043046, global = -0.00165121, cumulative = -0.00165121
smoothSolver:  Solving for omega, Initial residual = 0.126394, Final residual = 0.00716289, No Iterations 1
smoothSolver:  Solving for k, Initial residual = 1, Final residual = 0.0346346, No Iterations 1
ExecutionTime = 3.67844 s  ClockTime = 4 s

volFieldValue Uavg_propeller write:
    volAverage(propeller) of U = (-0.00152633 -0.00125545 -89.5139)

surfaceFieldValue phi_farField write:
    orientedSum(farField) of phi = 0.0807419

surfaceFieldValue phi_top write:
    orientedSum(top) of phi = -0.16

Time = 2s

--> FOAM Warning : 
    From function void Foam::Function1s::Table<Type>::checkX(Foam::scalar) const [with Type = Foam::Vector2D<double>; Foam::scalar = double]
    in file lnInclude/Table.C at line 107
    "value (29.838) overflow"

--> FOAM Warning : 
    From function void Foam::Function1s::Table<Type>::checkX(Foam::scalar) const [with Type = Foam::Vector2D<double>; Foam::scalar = double]
    in file lnInclude/Table.C at line 107
    "value (29.8368) overflow"

smoothSolver:  Solving for Ux, Initial residual = 0.252313, Final residual = 0.0133026, No Iterations 1
smoothSolver:  Solving for Uy, Initial residual = 0.252315, Final residual = 0.0129868, No Iterations 1
smoothSolver:  Solving for Uz, Initial residual = 0.262409, Final residual = 0.0140979, No Iterations 1
DICPCG:  Solving for p, Initial residual = 0.982244, Final residual = 0.0461501, No Iterations 35
time step continuity errors : sum local = 0.0338916, global = 0.00368027, cumulative = 0.00202906
smoothSolver:  Solving for omega, Initial residual = 0.0482605, Final residual = 0.00288516, No Iterations 1
smoothSolver:  Solving for k, Initial residual = 0.0633709, Final residual = 0.00316986, No Iterations 1
ExecutionTime = 4.57799 s  ClockTime = 5 s

volFieldValue Uavg_propeller write:
    volAverage(propeller) of U = (0.0351653 -0.00270419 -61.4869)

surfaceFieldValue phi_farField write:
    orientedSum(farField) of phi = 0.580692

surfaceFieldValue phi_top write:
    orientedSum(top) of phi = -0.404038

Time = 3s

--> FOAM Warning : 
    From function void Foam::Function1s::Table<Type>::checkX(Foam::scalar) const [with Type = Foam::Vector2D<double>; Foam::scalar = double]
    in file lnInclude/Table.C at line 107
    "value (20.4956) overflow"

--> FOAM Warning : 
    From function void Foam::Function1s::Table<Type>::checkX(Foam::scalar) const [with Type = Foam::Vector2D<double>; Foam::scalar = double]
    in file lnInclude/Table.C at line 107
    "value (20.4939) overflow"

smoothSolver:  Solving for Ux, Initial residual = 0.220952, Final residual = 0.0112269, No Iterations 1
smoothSolver:  Solving for Uy, Initial residual = 0.220821, Final residual = 0.0107034, No Iterations 1
smoothSolver:  Solving for Uz, Initial residual = 0.230814, Final residual = 0.0106994, No Iterations 1
DICPCG:  Solving for p, Initial residual = 0.0397435, Final residual = 0.0017858, No Iterations 26
time step continuity errors : sum local = 0.0241736, global = 0.00280694, cumulative = 0.00483601
smoothSolver:  Solving for omega, Initial residual = 0.0820797, Final residual = 0.00484276, No Iterations 1
smoothSolver:  Solving for k, Initial residual = 0.0709771, Final residual = 0.00360095, No Iterations 1
ExecutionTime = 5.33385 s  ClockTime = 6 s

volFieldValue Uavg_propeller write:
    volAverage(propeller) of U = (0.0461293 -0.0233274 -36.5522)

surfaceFieldValue phi_farField write:
    orientedSum(farField) of phi = 0.404883

surfaceFieldValue phi_top write:
    orientedSum(top) of phi = -0.270149

Time = 4s

--> FOAM Warning : 
    From function void Foam::Function1s::Table<Type>::checkX(Foam::scalar) const [with Type = Foam::Vector2D<double>; Foam::scalar = double]
    in file lnInclude/Table.C at line 107
    "value (12.1841) overflow"

--> FOAM Warning : 
    From function void Foam::Function1s::Table<Type>::checkX(Foam::scalar) const [with Type = Foam::Vector2D<double>; Foam::scalar = double]
    in file lnInclude/Table.C at line 107
    "value (12.1812) overflow"

smoothSolver:  Solving for Ux, Initial residual = 0.214782, Final residual = 0.012149, No Iterations 1
smoothSolver:  Solving for Uy, Initial residual = 0.21452, Final residual = 0.011771, No Iterations 1
smoothSolver:  Solving for Uz, Initial residual = 0.218044, Final residual = 0.0104529, No Iterations 1
DICPCG:  Solving for p, Initial residual = 0.0118436, Final residual = 0.000581435, No Iterations 20
time step continuity errors : sum local = 0.02263, global = 0.0102271, cumulative = 0.0150631
smoothSolver:  Solving for omega, Initial residual = 0.0788183, Final residual = 0.0045968, No Iterations 1
smoothSolver:  Solving for k, Initial residual = 0.068477, Final residual = 0.00356425, No Iterations 1
ExecutionTime = 6.05331 s  ClockTime = 6 s

volFieldValue Uavg_propeller write:
    volAverage(propeller) of U = (0.0513497 -0.0420489 -20.3823)

surfaceFieldValue phi_farField write:
    orientedSum(farField) of phi = 0.860849

surfaceFieldValue phi_top write:
    orientedSum(top) of phi = -0.369949

Time = 5s

--> FOAM Warning : 
    From function void Foam::Function1s::Table<Type>::checkX(Foam::scalar) const [with Type = Foam::Vector2D<double>; Foam::scalar = double]
    in file lnInclude/Table.C at line 107
    "value (6.79409) overflow"

--> FOAM Warning : 
    From function void Foam::Function1s::Table<Type>::checkX(Foam::scalar) const [with Type = Foam::Vector2D<double>; Foam::scalar = double]
    in file lnInclude/Table.C at line 107
    "value (6.78892) overflow"

smoothSolver:  Solving for Ux, Initial residual = 0.158505, Final residual = 0.00911963, No Iterations 1
smoothSolver:  Solving for Uy, Initial residual = 0.158298, Final residual = 0.00882691, No Iterations 1
smoothSolver:  Solving for Uz, Initial residual = 0.207546, Final residual = 0.0103689, No Iterations 1
DICPCG:  Solving for p, Initial residual = 0.0252955, Final residual = 0.00119643, No Iterations 28
time step continuity errors : sum local = 0.0312214, global = 0.0115965, cumulative = 0.0266596
smoothSolver:  Solving for omega, Initial residual = 0.0647863, Final residual = 0.0038737, No Iterations 1
smoothSolver:  Solving for k, Initial residual = 0.0723147, Final residual = 0.00380024, No Iterations 1
ExecutionTime = 6.90707 s  ClockTime = 7 s

volFieldValue Uavg_propeller write:
    volAverage(propeller) of U = (0.0974574 -0.0747707 -13.7997)

surfaceFieldValue phi_farField write:
    orientedSum(farField) of phi = 1.02525

surfaceFieldValue phi_top write:
    orientedSum(top) of phi = -0.468615

Time = 6s

--> FOAM Warning : 
    From function void Foam::Function1s::Table<Type>::checkX(Foam::scalar) const [with Type = Foam::Vector2D<double>; Foam::scalar = double]
    in file lnInclude/Table.C at line 107
    "value (4.59991) overflow"

--> FOAM Warning : 
    From function void Foam::Function1s::Table<Type>::checkX(Foam::scalar) const [with Type = Foam::Vector2D<double>; Foam::scalar = double]
    in file lnInclude/Table.C at line 107
    "value (4.59228) overflow"

smoothSolver:  Solving for Ux, Initial residual = 0.105573, Final residual = 0.00614866, No Iterations 1
smoothSolver:  Solving for Uy, Initial residual = 0.105469, Final residual = 0.00593246, No Iterations 1
smoothSolver:  Solving for Uz, Initial residual = 0.170164, Final residual = 0.00942305, No Iterations 1
DICPCG:  Solving for p, Initial residual = 0.205708, Final residual = 0.00891212, No Iterations 29
time step continuity errors : sum local = 0.0338878, global = 0.0101349, cumulative = 0.0367945
smoothSolver:  Solving for omega, Initial residual = 0.050284, Final residual = 0.00308251, No Iterations 1
smoothSolver:  Solving for k, Initial residual = 0.0724545, Final residual = 0.00381069, No Iterations 1
ExecutionTime = 7.7093 s  ClockTime = 8 s

volFieldValue Uavg_propeller write:
    volAverage(propeller) of U = (0.170963 -0.0985861 -13.9202)

surfaceFieldValue phi_farField write:
    orientedSum(farField) of phi = 1.0009

surfaceFieldValue phi_top write:
    orientedSum(top) of phi = -0.514425

Time = 7s

--> FOAM Warning : 
    From function void Foam::Function1s::Table<Type>::checkX(Foam::scalar) const [with Type = Foam::Vector2D<double>; Foam::scalar = double]
    in file lnInclude/Table.C at line 107
    "value (4.64006) overflow"

--> FOAM Warning : 
    From function void Foam::Function1s::Table<Type>::checkX(Foam::scalar) const [with Type = Foam::Vector2D<double>; Foam::scalar = double]
    in file lnInclude/Table.C at line 107
    "value (4.63249) overflow"

smoothSolver:  Solving for Ux, Initial residual = 0.0728867, Final residual = 0.00425287, No Iterations 1
smoothSolver:  Solving for Uy, Initial residual = 0.0729321, Final residual = 0.00413253, No Iterations 1
smoothSolver:  Solving for Uz, Initial residual = 0.12309, Final residual = 0.00728844, No Iterations 1
DICPCG:  Solving for p, Initial residual = 0.0192067, Final residual = 0.000897539, No Iterations 29
time step continuity errors : sum local = 0.0341952, global = 0.00986159, cumulative = 0.0466561
smoothSolver:  Solving for omega, Initial residual = 0.0423644, Final residual = 0.00257017, No Iterations 1
smoothSolver:  Solving for k, Initial residual = 0.0726545, Final residual = 0.00382371, No Iterations 1
ExecutionTime = 8.52622 s  ClockTime = 9 s

volFieldValue Uavg_propeller write:
    volAverage(propeller) of U = (0.180889 -0.0530056 -16.2211)

surfaceFieldValue phi_farField write:
    orientedSum(farField) of phi = 1.02548

surfaceFieldValue phi_top write:
    orientedSum(top) of phi = -0.552119

Time = 8s

--> FOAM Warning : 
    From function void Foam::Function1s::Table<Type>::checkX(Foam::scalar) const [with Type = Foam::Vector2D<double>; Foam::scalar = double]
    in file lnInclude/Table.C at line 107
    "value (5.40704) overflow"

--> FOAM Warning : 
    From function void Foam::Function1s::Table<Type>::checkX(Foam::scalar) const [with Type = Foam::Vector2D<double>; Foam::scalar = double]
    in file lnInclude/Table.C at line 107
    "value (5.40054) overflow"

smoothSolver:  Solving for Ux, Initial residual = 0.0774011, Final residual = 0.00429224, No Iterations 1
smoothSolver:  Solving for Uy, Initial residual = 0.0776497, Final residual = 0.0044845, No Iterations 1
smoothSolver:  Solving for Uz, Initial residual = 0.111955, Final residual = 0.00581, No Iterations 1
DICPCG:  Solving for p, Initial residual = 0.00935349, Final residual = 0.00044691, No Iterations 26
time step continuity errors : sum local = 0.0291353, global = 0.0107731, cumulative = 0.0574292
smoothSolver:  Solving for omega, Initial residual = 0.0367585, Final residual = 0.00221878, No Iterations 1
smoothSolver:  Solving for k, Initial residual = 0.0744774, Final residual = 0.00393409, No Iterations 1
ExecutionTime = 9.30015 s  ClockTime = 9 s

volFieldValue Uavg_propeller write:
    volAverage(propeller) of U = (0.190814 -0.00308961 -16.7211)

surfaceFieldValue phi_farField write:
    orientedSum(farField) of phi = 1.09359

surfaceFieldValue phi_top write:
    orientedSum(top) of phi = -0.576479

Time = 9s

--> FOAM Warning : 
    From function void Foam::Function1s::Table<Type>::checkX(Foam::scalar) const [with Type = Foam::Vector2D<double>; Foam::scalar = double]
    in file lnInclude/Table.C at line 107
    "value (5.5737) overflow"

--> FOAM Warning : 
    From function void Foam::Function1s::Table<Type>::checkX(Foam::scalar) const [with Type = Foam::Vector2D<double>; Foam::scalar = double]
    in file lnInclude/Table.C at line 107
    "value (5.5674) overflow"

smoothSolver:  Solving for Ux, Initial residual = 0.0898303, Final residual = 0.00487175, No Iterations 1
smoothSolver:  Solving for Uy, Initial residual = 0.0901723, Final residual = 0.00535863, No Iterations 1
smoothSolver:  Solving for Uz, Initial residual = 0.141648, Final residual = 0.00737199, No Iterations 1
DICPCG:  Solving for p, Initial residual = 0.00794179, Final residual = 0.000384533, No Iterations 16
time step continuity errors : sum local = 0.0254173, global = 0.0152148, cumulative = 0.072644
smoothSolver:  Solving for omega, Initial residual = 0.0337231, Final residual = 0.0020225, No Iterations 1
smoothSolver:  Solving for k, Initial residual = 0.077409, Final residual = 0.00409288, No Iterations 1
ExecutionTime = 10.0677 s  ClockTime = 10 s

volFieldValue Uavg_propeller write:
    volAverage(propeller) of U = (0.176535 0.0383921 -14.9239)

surfaceFieldValue phi_farField write:
    orientedSum(farField) of phi = 1.30617

surfaceFieldValue phi_top write:
    orientedSum(top) of phi = -0.575866

Time = 10s

--> FOAM Warning : 
    From function void Foam::Function1s::Table<Type>::checkX(Foam::scalar) const [with Type = Foam::Vector2D<double>; Foam::scalar = double]
    in file lnInclude/Table.C at line 107
    "value (4.97465) overflow"

--> FOAM Warning : 
    From function void Foam::Function1s::Table<Type>::checkX(Foam::scalar) const [with Type = Foam::Vector2D<double>; Foam::scalar = double]
    in file lnInclude/Table.C at line 107
    "value (4.96759) overflow"

smoothSolver:  Solving for Ux, Initial residual = 0.0920879, Final residual = 0.00493064, No Iterations 1
smoothSolver:  Solving for Uy, Initial residual = 0.0924412, Final residual = 0.00546261, No Iterations 1
smoothSolver:  Solving for Uz, Initial residual = 0.140727, Final residual = 0.00762937, No Iterations 1
DICPCG:  Solving for p, Initial residual = 0.00867184, Final residual = 0.000378868, No Iterations 21
time step continuity errors : sum local = 0.0231912, global = 0.00553521, cumulative = 0.0781792
smoothSolver:  Solving for omega, Initial residual = 0.0321179, Final residual = 0.00189834, No Iterations 1
smoothSolver:  Solving for k, Initial residual = 0.0817337, Final residual = 0.00433888, No Iterations 1
ExecutionTime = 10.8359 s  ClockTime = 11 s

volFieldValue Uavg_propeller write:
    volAverage(propeller) of U = (0.139283 0.069336 -11.6519)

surfaceFieldValue phi_farField write:
    orientedSum(farField) of phi = 0.878597

surfaceFieldValue phi_top write:
    orientedSum(top) of phi = -0.612907

Time = 11s

--> FOAM Warning : 
    From function void Foam::Function1s::Table<Type>::checkX(Foam::scalar) const [with Type = Foam::Vector2D<double>; Foam::scalar = double]
    in file lnInclude/Table.C at line 107
    "value (3.88398) overflow"

--> FOAM Warning : 
    From function void Foam::Function1s::Table<Type>::checkX(Foam::scalar) const [with Type = Foam::Vector2D<double>; Foam::scalar = double]
    in file lnInclude/Table.C at line 107
    "value (3.87494) overflow"

smoothSolver:  Solving for Ux, Initial residual = 0.0837841, Final residual = 0.00447512, No Iterations 1
smoothSolver:  Solving for Uy, Initial residual = 0.0842013, Final residual = 0.00488309, No Iterations 1
smoothSolver:  Solving for Uz, Initial residual = 0.109016, Final residual = 0.0060596, No Iterations 1
DICPCG:  Solving for p, Initial residual = 0.0122588, Final residual = 0.000612721, No Iterations 22
time step continuity errors : sum local = 0.0263569, global = -0.000572771, cumulative = 0.0776064
smoothSolver:  Solving for omega, Initial residual = 0.0312564, Final residual = 0.00180431, No Iterations 1
smoothSolver:  Solving for k, Initial residual = 0.0835735, Final residual = 0.0044427, No Iterations 1
ExecutionTime = 11.552 s  ClockTime = 12 s

volFieldValue Uavg_propeller write:
    volAverage(propeller) of U = (0.0847471 0.0803958 -7.97688)

surfaceFieldValue phi_farField write:
    orientedSum(farField) of phi = 0.633415

surfaceFieldValue phi_top write:
    orientedSum(top) of phi = -0.660908

Time = 12s

--> FOAM Warning : 
    From function void Foam::Function1s::Table<Type>::checkX(Foam::scalar) const [with Type = Foam::Vector2D<double>; Foam::scalar = double]
    in file lnInclude/Table.C at line 107
    "value (2.65896) overflow"

--> FOAM Warning : 
    From function void Foam::Function1s::Table<Type>::checkX(Foam::scalar) const [with Type = Foam::Vector2D<double>; Foam::scalar = double]
    in file lnInclude/Table.C at line 107
    "value (2.64575) overflow"

smoothSolver:  Solving for Ux, Initial residual = 0.074795, Final residual = 0.00405451, No Iterations 1
smoothSolver:  Solving for Uy, Initial residual = 0.075208, Final residual = 0.00423598, No Iterations 1
smoothSolver:  Solving for Uz, Initial residual = 0.0741971, Final residual = 0.00392703, No Iterations 1
DICPCG:  Solving for p, Initial residual = 0.0206286, Final residual = 0.000977475, No Iterations 21
time step continuity errors : sum local = 0.0232848, global = -0.00156331, cumulative = 0.0760431
smoothSolver:  Solving for omega, Initial residual = 0.030394, Final residual = 0.00173041, No Iterations 1
smoothSolver:  Solving for k, Initial residual = 0.0827356, Final residual = 0.0043975, No Iterations 1
ExecutionTime = 12.2886 s  ClockTime = 12 s

volFieldValue Uavg_propeller write:
    volAverage(propeller) of U = (-0.00516694 0.0629709 -4.80974)

surfaceFieldValue phi_farField write:
    orientedSum(farField) of phi = 0.639963

surfaceFieldValue phi_top write:
    orientedSum(top) of phi = -0.715002

Time = 13s

--> FOAM Warning : 
    From function void Foam::Function1s::Table<Type>::checkX(Foam::scalar) const [with Type = Foam::Vector2D<double>; Foam::scalar = double]
    in file lnInclude/Table.C at line 107
    "value (1.60325) overflow"

--> FOAM Warning : 
    From function void Foam::Function1s::Table<Type>::checkX(Foam::scalar) const [with Type = Foam::Vector2D<double>; Foam::scalar = double]
    in file lnInclude/Table.C at line 107
    "value (1.58134) overflow"

smoothSolver:  Solving for Ux, Initial residual = 0.0689812, Final residual = 0.00382584, No Iterations 1
smoothSolver:  Solving for Uy, Initial residual = 0.069256, Final residual = 0.0038209, No Iterations 1
smoothSolver:  Solving for Uz, Initial residual = 0.0840684, Final residual = 0.00466504, No Iterations 1
DICPCG:  Solving for p, Initial residual = 0.0430883, Final residual = 0.00214656, No Iterations 15
time step continuity errors : sum local = 0.0224094, global = 0.00271081, cumulative = 0.0787539
smoothSolver:  Solving for omega, Initial residual = 0.029713, Final residual = 0.00167729, No Iterations 1
smoothSolver:  Solving for k, Initial residual = 0.0809209, Final residual = 0.00429993, No Iterations 1
ExecutionTime = 12.9745 s  ClockTime = 13 s

volFieldValue Uavg_propeller write:
    volAverage(propeller) of U = (-0.0762935 0.0841825 -2.80504)

surfaceFieldValue phi_farField write:
    orientedSum(farField) of phi = 0.876967

surfaceFieldValue phi_top write:
    orientedSum(top) of phi = -0.746849

Time = 14s

--> FOAM Warning : 
    From function void Foam::Function1s::Table<Type>::checkX(Foam::scalar) const [with Type = Foam::Vector2D<double>; Foam::scalar = double]
    in file lnInclude/Table.C at line 107
    "value (0.935015) overflow"

--> FOAM Warning : 
    From function void Foam::Function1s::Table<Type>::checkX(Foam::scalar) const [with Type = Foam::Vector2D<double>; Foam::scalar = double]
    in file lnInclude/Table.C at line 107
    "value (0.897461) overflow"

smoothSolver:  Solving for Ux, Initial residual = 0.0661129, Final residual = 0.00368495, No Iterations 1
smoothSolver:  Solving for Uy, Initial residual = 0.0665357, Final residual = 0.00365593, No Iterations 1
smoothSolver:  Solving for Uz, Initial residual = 0.109231, Final residual = 0.00665897, No Iterations 1
DICPCG:  Solving for p, Initial residual = 0.0929189, Final residual = 0.00433743, No Iterations 15
time step continuity errors : sum local = 0.0205317, global = 0.00195236, cumulative = 0.0807063
smoothSolver:  Solving for omega, Initial residual = 0.0291441, Final residual = 0.0016397, No Iterations 1
smoothSolver:  Solving for k, Initial residual = 0.0796658, Final residual = 0.00421646, No Iterations 1
ExecutionTime = 13.713 s  ClockTime = 14 s

volFieldValue Uavg_propeller write:
    volAverage(propeller) of U = (0.0456851 -0.173497 -2.10404)

surfaceFieldValue phi_farField write:
    orientedSum(farField) of phi = 0.893723

surfaceFieldValue phi_top write:
    orientedSum(top) of phi = -0.80001

Time = 15s

smoothSolver:  Solving for Ux, Initial residual = 0.0644551, Final residual = 0.0035544, No Iterations 1
smoothSolver:  Solving for Uy, Initial residual = 0.0647286, Final residual = 0.00351703, No Iterations 1
smoothSolver:  Solving for Uz, Initial residual = 0.12593, Final residual = 0.00791658, No Iterations 1
DICPCG:  Solving for p, Initial residual = 0.107346, Final residual = 0.00515051, No Iterations 20
time step continuity errors : sum local = 0.0239688, global = 0.0043274, cumulative = 0.0850337
smoothSolver:  Solving for omega, Initial residual = 0.0291178, Final residual = 0.00162466, No Iterations 1
smoothSolver:  Solving for k, Initial residual = 0.0780227, Final residual = 0.0041107, No Iterations 1
ExecutionTime = 14.4563 s  ClockTime = 14 s

volFieldValue Uavg_propeller write:
    volAverage(propeller) of U = (0.177721 -0.303178 -2.19122)

surfaceFieldValue phi_farField write:
    orientedSum(farField) of phi = 1.05349

surfaceFieldValue phi_top write:
    orientedSum(top) of phi = -0.845778

Time = 16s

smoothSolver:  Solving for Ux, Initial residual = 0.0629087, Final residual = 0.00346887, No Iterations 1
smoothSolver:  Solving for Uy, Initial residual = 0.0629532, Final residual = 0.00344059, No Iterations 1
smoothSolver:  Solving for Uz, Initial residual = 0.115961, Final residual = 0.00729514, No Iterations 1
DICPCG:  Solving for p, Initial residual = 0.0558865, Final residual = 0.00269332, No Iterations 22
time step continuity errors : sum local = 0.0253914, global = 0.00831712, cumulative = 0.0933508
smoothSolver:  Solving for omega, Initial residual = 0.0294895, Final residual = 0.00161892, No Iterations 1
smoothSolver:  Solving for k, Initial residual = 0.0765043, Final residual = 0.00401687, No Iterations 1
ExecutionTime = 15.2347 s  ClockTime = 15 s

volFieldValue Uavg_propeller write:
    volAverage(propeller) of U = (0.14897 -0.277333 -2.29767)

surfaceFieldValue phi_farField write:
    orientedSum(farField) of phi = 1.24278

surfaceFieldValue phi_top write:
    orientedSum(top) of phi = -0.843555

Time = 17s

smoothSolver:  Solving for Ux, Initial residual = 0.0633483, Final residual = 0.00348707, No Iterations 1
smoothSolver:  Solving for Uy, Initial residual = 0.0632644, Final residual = 0.00349439, No Iterations 1
smoothSolver:  Solving for Uz, Initial residual = 0.0934705, Final residual = 0.0056817, No Iterations 1
DICPCG:  Solving for p, Initial residual = 0.028384, Final residual = 0.00134381, No Iterations 23
time step continuity errors : sum local = 0.0237761, global = 0.00847759, cumulative = 0.101828
smoothSolver:  Solving for omega, Initial residual = 0.0296515, Final residual = 0.0016064, No Iterations 1
smoothSolver:  Solving for k, Initial residual = 0.0751637, Final residual = 0.00393256, No Iterations 1
ExecutionTime = 15.991 s  ClockTime = 16 s

volFieldValue Uavg_propeller write:
    volAverage(propeller) of U = (0.200009 -0.246629 -1.46114)

surfaceFieldValue phi_farField write:
    orientedSum(farField) of phi = 1.24617

surfaceFieldValue phi_top write:
    orientedSum(top) of phi = -0.839243

Time = 18s

smoothSolver:  Solving for Ux, Initial residual = 0.0648172, Final residual = 0.00358096, No Iterations 1
smoothSolver:  Solving for Uy, Initial residual = 0.0651261, Final residual = 0.00358495, No Iterations 1
smoothSolver:  Solving for Uz, Initial residual = 0.0759495, Final residual = 0.00416173, No Iterations 1
DICPCG:  Solving for p, Initial residual = 0.0170689, Final residual = 0.000842866, No Iterations 21
time step continuity errors : sum local = 0.0223352, global = 0.00877259, cumulative = 0.110601
smoothSolver:  Solving for omega, Initial residual = 0.0296861, Final residual = 0.00159108, No Iterations 1
smoothSolver:  Solving for k, Initial residual = 0.0739357, Final residual = 0.00384899, No Iterations 1
ExecutionTime = 16.791 s  ClockTime = 17 s

volFieldValue Uavg_propeller write:
    volAverage(propeller) of U = (0.129051 -0.0801277 -0.453724)

surfaceFieldValue phi_farField write:
    orientedSum(farField) of phi = 1.26582

surfaceFieldValue phi_top write:
    orientedSum(top) of phi = -0.844737

Time = 19s

--> FOAM Warning : 
    From function void Foam::Function1s::Table<Type>::checkX(Foam::scalar) const [with Type = Foam::Vector2D<double>; Foam::scalar = double]
    in file lnInclude/Table.C at line 107
    "value (-1.89287) underflow"

smoothSolver:  Solving for Ux, Initial residual = 0.066841, Final residual = 0.00366587, No Iterations 1
smoothSolver:  Solving for Uy, Initial residual = 0.0671056, Final residual = 0.00368695, No Iterations 1
smoothSolver:  Solving for Uz, Initial residual = 0.0763539, Final residual = 0.00439927, No Iterations 1
DICPCG:  Solving for p, Initial residual = 0.0133525, Final residual = 0.000615221, No Iterations 19
time step continuity errors : sum local = 0.0195751, global = 0.010035, cumulative = 0.120636
smoothSolver:  Solving for omega, Initial residual = 0.0297543, Final residual = 0.00158226, No Iterations 1
smoothSolver:  Solving for k, Initial residual = 0.0730661, Final residual = 0.00378706, No Iterations 1
ExecutionTime = 17.548 s  ClockTime = 17 s

volFieldValue Uavg_propeller write:
    volAverage(propeller) of U = (0.208022 0.00924415 0.6041)

surfaceFieldValue phi_farField write:
    orientedSum(farField) of phi = 1.35165

surfaceFieldValue phi_top write:
    orientedSum(top) of phi = -0.869967

Time = 20s

--> FOAM Warning : 
    From function void Foam::Function1s::Table<Type>::checkX(Foam::scalar) const [with Type = Foam::Vector2D<double>; Foam::scalar = double]
    in file lnInclude/Table.C at line 107
    "value (-1.25307) underflow"

smoothSolver:  Solving for Ux, Initial residual = 0.0671844, Final residual = 0.00365456, No Iterations 1
smoothSolver:  Solving for Uy, Initial residual = 0.0673596, Final residual = 0.00368001, No Iterations 1
smoothSolver:  Solving for Uz, Initial residual = 0.0764251, Final residual = 0.00448403, No Iterations 1
DICPCG:  Solving for p, Initial residual = 0.0138992, Final residual = 0.000657906, No Iterations 19
time step continuity errors : sum local = 0.0213373, global = 0.00606423, cumulative = 0.1267
smoothSolver:  Solving for omega, Initial residual = 0.0297484, Final residual = 0.00156449, No Iterations 1
smoothSolver:  Solving for k, Initial residual = 0.0723342, Final residual = 0.00373855, No Iterations 1
ExecutionTime = 18.2717 s  ClockTime = 18 s

volFieldValue Uavg_propeller write:
    volAverage(propeller) of U = (0.196543 0.0724928 1.25139)

surfaceFieldValue phi_farField write:
    orientedSum(farField) of phi = 1.20346

surfaceFieldValue phi_top write:
    orientedSum(top) of phi = -0.912381

Time = 21s

smoothSolver:  Solving for Ux, Initial residual = 0.0657975, Final residual = 0.00354674, No Iterations 1
smoothSolver:  Solving for Uy, Initial residual = 0.0659603, Final residual = 0.00356072, No Iterations 1
smoothSolver:  Solving for Uz, Initial residual = 0.0753186, Final residual = 0.0043616, No Iterations 1
DICPCG:  Solving for p, Initial residual = 0.0163199, Final residual = 0.00075584, No Iterations 20
time step continuity errors : sum local = 0.0227068, global = -0.00157708, cumulative = 0.125123
smoothSolver:  Solving for omega, Initial residual = 0.0295656, Final residual = 0.00153316, No Iterations 1
smoothSolver:  Solving for k, Initial residual = 0.0719012, Final residual = 0.00370704, No Iterations 1
ExecutionTime = 19.0284 s  ClockTime = 19 s

volFieldValue Uavg_propeller write:
    volAverage(propeller) of U = (0.22357 0.0685787 1.55472)

surfaceFieldValue phi_farField write:
    orientedSum(farField) of phi = 0.906204

surfaceFieldValue phi_top write:
    orientedSum(top) of phi = -0.981904

Time = 22s

smoothSolver:  Solving for Ux, Initial residual = 0.06389, Final residual = 0.00341954, No Iterations 1
smoothSolver:  Solving for Uy, Initial residual = 0.0639813, Final residual = 0.00341553, No Iterations 1
smoothSolver:  Solving for Uz, Initial residual = 0.0766149, Final residual = 0.00447304, No Iterations 1
DICPCG:  Solving for p, Initial residual = 0.0194616, Final residual = 0.000950141, No Iterations 20
time step continuity errors : sum local = 0.0244886, global = -0.00775064, cumulative = 0.117373
smoothSolver:  Solving for omega, Initial residual = 0.0293554, Final residual = 0.00149792, No Iterations 1
smoothSolver:  Solving for k, Initial residual = 0.0716964, Final residual = 0.00368747, No Iterations 1
ExecutionTime = 19.7283 s  ClockTime = 19 s

volFieldValue Uavg_propeller write:
    volAverage(propeller) of U = (0.250594 0.0234776 1.70776)

surfaceFieldValue phi_farField write:
    orientedSum(farField) of phi = 0.682117

surfaceFieldValue phi_top write:
    orientedSum(top) of phi = -1.05415

Time = 23s

smoothSolver:  Solving for Ux, Initial residual = 0.0628226, Final residual = 0.0033396, No Iterations 1
smoothSolver:  Solving for Uy, Initial residual = 0.0628552, Final residual = 0.00332496, No Iterations 1
smoothSolver:  Solving for Uz, Initial residual = 0.0788522, Final residual = 0.0046964, No Iterations 1
DICPCG:  Solving for p, Initial residual = 0.0235935, Final residual = 0.00117046, No Iterations 23
time step continuity errors : sum local = 0.0246094, global = -0.0110762, cumulative = 0.106296
smoothSolver:  Solving for omega, Initial residual = 0.0290483, Final residual = 0.00146933, No Iterations 1
smoothSolver:  Solving for k, Initial residual = 0.0716116, Final residual = 0.00368053, No Iterations 1
ExecutionTime = 20.4781 s  ClockTime = 20 s

volFieldValue Uavg_propeller write:
    volAverage(propeller) of U = (0.228478 -0.0162094 1.95207)

surfaceFieldValue phi_farField write:
    orientedSum(farField) of phi = 0.568076

surfaceFieldValue phi_top write:
    orientedSum(top) of phi = -1.09973

Time = 24s

smoothSolver:  Solving for Ux, Initial residual = 0.0622756, Final residual = 0.00330534, No Iterations 1
smoothSolver:  Solving for Uy, Initial residual = 0.0623136, Final residual = 0.00327866, No Iterations 1
smoothSolver:  Solving for Uz, Initial residual = 0.0801291, Final residual = 0.00481635, No Iterations 1
DICPCG:  Solving for p, Initial residual = 0.0285685, Final residual = 0.0014227, No Iterations 20
time step continuity errors : sum local = 0.0242324, global = -0.010839, cumulative = 0.0954573
smoothSolver:  Solving for omega, Initial residual = 0.0286008, Final residual = 0.00143461, No Iterations 1
smoothSolver:  Solving for k, Initial residual = 0.071665, Final residual = 0.00367871, No Iterations 1
ExecutionTime = 21.1925 s  ClockTime = 21 s

volFieldValue Uavg_propeller write:
    volAverage(propeller) of U = (0.223135 -0.0538592 2.48593)

surfaceFieldValue phi_farField write:
    orientedSum(farField) of phi = 0.569129

surfaceFieldValue phi_top write:
    orientedSum(top) of phi = -1.0894

Time = 25s

--> FOAM Warning : 
    From function void Foam::Function1s::Table<Type>::checkX(Foam::scalar) const [with Type = Foam::Vector2D<double>; Foam::scalar = double]
    in file lnInclude/Table.C at line 107
    "value (0.828643) overflow"

smoothSolver:  Solving for Ux, Initial residual = 0.0614136, Final residual = 0.00326706, No Iterations 1
smoothSolver:  Solving for Uy, Initial residual = 0.0614646, Final residual = 0.00324002, No Iterations 1
smoothSolver:  Solving for Uz, Initial residual = 0.0781918, Final residual = 0.00465793, No Iterations 1
DICPCG:  Solving for p, Initial residual = 0.0287212, Final residual = 0.00130262, No Iterations 22
time step continuity errors : sum local = 0.0221731, global = -0.00717116, cumulative = 0.0882862
smoothSolver:  Solving for omega, Initial residual = 0.0281212, Final residual = 0.0014058, No Iterations 1
smoothSolver:  Solving for k, Initial residual = 0.0717616, Final residual = 0.00368594, No Iterations 1
ExecutionTime = 21.9213 s  ClockTime = 22 s

volFieldValue Uavg_propeller write:
    volAverage(propeller) of U = (0.219769 -0.0632205 3.13812)

surfaceFieldValue phi_farField write:
    orientedSum(farField) of phi = 0.666772

surfaceFieldValue phi_top write:
    orientedSum(top) of phi = -1.01099

Time = 26s

--> FOAM Warning : 
    From function void Foam::Function1s::Table<Type>::checkX(Foam::scalar) const [with Type = Foam::Vector2D<double>; Foam::scalar = double]
    in file lnInclude/Table.C at line 107
    "value (1.04604) overflow"

--> FOAM Warning : 
    From function void Foam::Function1s::Table<Type>::checkX(Foam::scalar) const [with Type = Foam::Vector2D<double>; Foam::scalar = double]
    in file lnInclude/Table.C at line 107
    "value (1.01247) overflow"

smoothSolver:  Solving for Ux, Initial residual = 0.0604212, Final residual = 0.00323111, No Iterations 1
smoothSolver:  Solving for Uy, Initial residual = 0.060465, Final residual = 0.00320194, No Iterations 1
smoothSolver:  Solving for Uz, Initial residual = 0.0741595, Final residual = 0.00433261, No Iterations 1
DICPCG:  Solving for p, Initial residual = 0.0264508, Final residual = 0.00130891, No Iterations 21
time step continuity errors : sum local = 0.024547, global = -0.00425867, cumulative = 0.0840275
smoothSolver:  Solving for omega, Initial residual = 0.0276988, Final residual = 0.00137474, No Iterations 1
smoothSolver:  Solving for k, Initial residual = 0.0724198, Final residual = 0.00370449, No Iterations 1
ExecutionTime = 22.614 s  ClockTime = 22 s

volFieldValue Uavg_propeller write:
    volAverage(propeller) of U = (0.204054 -0.0574179 3.43343)

surfaceFieldValue phi_farField write:
    orientedSum(farField) of phi = 0.698491

surfaceFieldValue phi_top write:
    orientedSum(top) of phi = -0.902907

Time = 27s

--> FOAM Warning : 
    From function void Foam::Function1s::Table<Type>::checkX(Foam::scalar) const [with Type = Foam::Vector2D<double>; Foam::scalar = double]
    in file lnInclude/Table.C at line 107
    "value (1.14448) overflow"

--> FOAM Warning : 
    From function void Foam::Function1s::Table<Type>::checkX(Foam::scalar) const [with Type = Foam::Vector2D<double>; Foam::scalar = double]
    in file lnInclude/Table.C at line 107
    "value (1.1138) overflow"

smoothSolver:  Solving for Ux, Initial residual = 0.0595508, Final residual = 0.0032165, No Iterations 1
smoothSolver:  Solving for Uy, Initial residual = 0.0595892, Final residual = 0.00318415, No Iterations 1
smoothSolver:  Solving for Uz, Initial residual = 0.0707957, Final residual = 0.00406523, No Iterations 1
DICPCG:  Solving for p, Initial residual = 0.0271176, Final residual = 0.00122532, No Iterations 21
time step continuity errors : sum local = 0.0222023, global = 0.000659606, cumulative = 0.0846871
smoothSolver:  Solving for omega, Initial residual = 0.0272868, Final residual = 0.0013441, No Iterations 1
smoothSolver:  Solving for k, Initial residual = 0.0730933, Final residual = 0.00373088, No Iterations 1
ExecutionTime = 23.3876 s  ClockTime = 23 s

volFieldValue Uavg_propeller write:
    volAverage(propeller) of U = (0.171712 -0.0403296 3.33656)

surfaceFieldValue phi_farField write:
    orientedSum(farField) of phi = 0.755367

surfaceFieldValue phi_top write:
    orientedSum(top) of phi = -0.723706

Time = 28s

--> FOAM Warning : 
    From function void Foam::Function1s::Table<Type>::checkX(Foam::scalar) const [with Type = Foam::Vector2D<double>; Foam::scalar = double]
    in file lnInclude/Table.C at line 107
    "value (1.11219) overflow"

--> FOAM Warning : 
    From function void Foam::Function1s::Table<Type>::checkX(Foam::scalar) const [with Type = Foam::Vector2D<double>; Foam::scalar = double]
    in file lnInclude/Table.C at line 107
    "value (1.08062) overflow"

smoothSolver:  Solving for Ux, Initial residual = 0.058881, Final residual = 0.00321245, No Iterations 1
smoothSolver:  Solving for Uy, Initial residual = 0.058865, Final residual = 0.00317364, No Iterations 1
smoothSolver:  Solving for Uz, Initial residual = 0.068786, Final residual = 0.00392902, No Iterations 1
DICPCG:  Solving for p, Initial residual = 0.0275611, Final residual = 0.0013403, No Iterations 17
time step continuity errors : sum local = 0.0233409, global = 0.00287473, cumulative = 0.0875618
smoothSolver:  Solving for omega, Initial residual = 0.0269093, Final residual = 0.00131715, No Iterations 1
smoothSolver:  Solving for k, Initial residual = 0.0743658, Final residual = 0.00378388, No Iterations 1
ExecutionTime = 24.0763 s  ClockTime = 24 s

volFieldValue Uavg_propeller write:
    volAverage(propeller) of U = (0.129431 -0.0165229 2.95477)

surfaceFieldValue phi_farField write:
    orientedSum(farField) of phi = 0.70941

surfaceFieldValue phi_top write:
    orientedSum(top) of phi = -0.571423

Time = 29s

--> FOAM Warning : 
    From function void Foam::Function1s::Table<Type>::checkX(Foam::scalar) const [with Type = Foam::Vector2D<double>; Foam::scalar = double]
    in file lnInclude/Table.C at line 107
    "value (0.984923) overflow"

--> FOAM Warning : 
    From function void Foam::Function1s::Table<Type>::checkX(Foam::scalar) const [with Type = Foam::Vector2D<double>; Foam::scalar = double]
    in file lnInclude/Table.C at line 107
    "value (0.949272) overflow"

smoothSolver:  Solving for Ux, Initial residual = 0.058295, Final residual = 0.00320328, No Iterations 1
smoothSolver:  Solving for Uy, Initial residual = 0.0582787, Final residual = 0.00315878, No Iterations 1
smoothSolver:  Solving for Uz, Initial residual = 0.0677699, Final residual = 0.00386897, No Iterations 1
DICPCG:  Solving for p, Initial residual = 0.0240084, Final residual = 0.00119567, No Iterations 23
time step continuity errors : sum local = 0.0225962, global = 0.00638212, cumulative = 0.093944
smoothSolver:  Solving for omega, Initial residual = 0.026586, Final residual = 0.00129515, No Iterations 1
smoothSolver:  Solving for k, Initial residual = 0.0749602, Final residual = 0.00381038, No Iterations 1
ExecutionTime = 24.8256 s  ClockTime = 24 s

volFieldValue Uavg_propeller write:
    volAverage(propeller) of U = (0.0865906 0.00875352 2.47192)

surfaceFieldValue phi_farField write:
    orientedSum(farField) of phi = 0.649639

surfaceFieldValue phi_top write:
    orientedSum(top) of phi = -0.343297

Time = 30s

--> FOAM Warning : 
    From function void Foam::Function1s::Table<Type>::checkX(Foam::scalar) const [with Type = Foam::Vector2D<double>; Foam::scalar = double]
    in file lnInclude/Table.C at line 107
    "value (0.823974) overflow"

smoothSolver:  Solving for Ux, Initial residual = 0.0571662, Final residual = 0.00315945, No Iterations 1
smoothSolver:  Solving for Uy, Initial residual = 0.0571237, Final residual = 0.00311098, No Iterations 1
smoothSolver:  Solving for Uz, Initial residual = 0.065807, Final residual = 0.00377351, No Iterations 1
DICPCG:  Solving for p, Initial residual = 0.0190454, Final residual = 0.000867782, No Iterations 21
time step continuity errors : sum local = 0.0200362, global = 0.00547294, cumulative = 0.0994169
smoothSolver:  Solving for omega, Initial residual = 0.0264243, Final residual = 0.00128446, No Iterations 1
smoothSolver:  Solving for k, Initial residual = 0.0758389, Final residual = 0.00385698, No Iterations 1
ExecutionTime = 25.5735 s  ClockTime = 25 s

volFieldValue Uavg_propeller write:
    volAverage(propeller) of U = (0.0520559 0.0309718 2.0654)

surfaceFieldValue phi_farField write:
    orientedSum(farField) of phi = 0.480956

surfaceFieldValue phi_top write:
    orientedSum(top) of phi = -0.218255

Time = 31s

smoothSolver:  Solving for Ux, Initial residual = 0.0559522, Final residual = 0.00310343, No Iterations 1
smoothSolver:  Solving for Uy, Initial residual = 0.0558808, Final residual = 0.00305334, No Iterations 1
smoothSolver:  Solving for Uz, Initial residual = 0.0636589, Final residual = 0.00367461, No Iterations 1
DICPCG:  Solving for p, Initial residual = 0.0197881, Final residual = 0.000924671, No Iterations 19
time step continuity errors : sum local = 0.0201105, global = 0.00555785, cumulative = 0.104975
smoothSolver:  Solving for omega, Initial residual = 0.0263478, Final residual = 0.00127928, No Iterations 1
smoothSolver:  Solving for k, Initial residual = 0.0767735, Final residual = 0.00391109, No Iterations 1
ExecutionTime = 26.28 s  ClockTime = 27 s

volFieldValue Uavg_propeller write:
    volAverage(propeller) of U = (0.0321504 0.0448443 1.75609)

surfaceFieldValue phi_farField write:
    orientedSum(farField) of phi = 0.296109

surfaceFieldValue phi_top write:
    orientedSum(top) of phi = -0.0293323

Time = 32s

smoothSolver:  Solving for Ux, Initial residual = 0.0550758, Final residual = 0.00306907, No Iterations 1
smoothSolver:  Solving for Uy, Initial residual = 0.0550134, Final residual = 0.00301565, No Iterations 1
smoothSolver:  Solving for Uz, Initial residual = 0.0619943, Final residual = 0.00359485, No Iterations 1
DICPCG:  Solving for p, Initial residual = 0.020588, Final residual = 0.000977811, No Iterations 19
time step continuity errors : sum local = 0.0198695, global = -0.000366476, cumulative = 0.104608
smoothSolver:  Solving for omega, Initial residual = 0.02634, Final residual = 0.00128249, No Iterations 1
smoothSolver:  Solving for k, Initial residual = 0.0776057, Final residual = 0.00396274, No Iterations 1
ExecutionTime = 27.0436 s  ClockTime = 27 s

volFieldValue Uavg_propeller write:
    volAverage(propeller) of U = (0.0264439 0.0504495 1.62135)

surfaceFieldValue phi_farField write:
    orientedSum(farField) of phi = -0.0225871

surfaceFieldValue phi_top write:
    orientedSum(top) of phi = 0.0049963

Time = 33s

smoothSolver:  Solving for Ux, Initial residual = 0.0546324, Final residual = 0.0030583, No Iterations 1
smoothSolver:  Solving for Uy, Initial residual = 0.0546002, Final residual = 0.00299903, No Iterations 1
smoothSolver:  Solving for Uz, Initial residual = 0.0616949, Final residual = 0.00358551, No Iterations 1
DICPCG:  Solving for p, Initial residual = 0.0258899, Final residual = 0.00127532, No Iterations 23
time step continuity errors : sum local = 0.0198956, global = -0.00549238, cumulative = 0.0991159
smoothSolver:  Solving for omega, Initial residual = 0.0265154, Final residual = 0.00129616, No Iterations 1
smoothSolver:  Solving for k, Initial residual = 0.0788031, Final residual = 0.0040379, No Iterations 1
ExecutionTime = 27.7598 s  ClockTime = 28 s

volFieldValue Uavg_propeller write:
    volAverage(propeller) of U = (0.0295947 0.0497486 1.65188)

surfaceFieldValue phi_farField write:
    orientedSum(farField) of phi = -0.286062

surfaceFieldValue phi_top write:
    orientedSum(top) of phi = 0.0224279

Time = 34s

smoothSolver:  Solving for Ux, Initial residual = 0.0542482, Final residual = 0.00304674, No Iterations 1
smoothSolver:  Solving for Uy, Initial residual = 0.0542359, Final residual = 0.00298389, No Iterations 1
smoothSolver:  Solving for Uz, Initial residual = 0.0623685, Final residual = 0.00361938, No Iterations 1
DICPCG:  Solving for p, Initial residual = 0.0352511, Final residual = 0.00160404, No Iterations 25
time step continuity errors : sum local = 0.0182485, global = -0.00305211, cumulative = 0.0960638
smoothSolver:  Solving for omega, Initial residual = 0.0268023, Final residual = 0.00131408, No Iterations 1
smoothSolver:  Solving for k, Initial residual = 0.0798712, Final residual = 0.00411341, No Iterations 1
ExecutionTime = 28.5112 s  ClockTime = 29 s

volFieldValue Uavg_propeller write:
    volAverage(propeller) of U = (0.0347772 0.0460602 1.76287)

surfaceFieldValue phi_farField write:
    orientedSum(farField) of phi = -0.421765

surfaceFieldValue phi_top write:
    orientedSum(top) of phi = 0.275264

Time = 35s

smoothSolver:  Solving for Ux, Initial residual = 0.0535743, Final residual = 0.00302217, No Iterations 1
smoothSolver:  Solving for Uy, Initial residual = 0.0535717, Final residual = 0.00295717, No Iterations 1
smoothSolver:  Solving for Uz, Initial residual = 0.0627893, Final residual = 0.0036342, No Iterations 1
DICPCG:  Solving for p, Initial residual = 0.0315252, Final residual = 0.00145902, No Iterations 23
time step continuity errors : sum local = 0.0190419, global = -0.00233681, cumulative = 0.093727
smoothSolver:  Solving for omega, Initial residual = 0.0270955, Final residual = 0.00133618, No Iterations 1
smoothSolver:  Solving for k, Initial residual = 0.0803708, Final residual = 0.00417853, No Iterations 1
ExecutionTime = 29.2934 s  ClockTime = 30 s

volFieldValue Uavg_propeller write:
    volAverage(propeller) of U = (0.0373016 0.0431221 1.84193)

surfaceFieldValue phi_farField write:
    orientedSum(farField) of phi = -0.631465

surfaceFieldValue phi_top write:
    orientedSum(top) of phi = 0.519298

Time = 36s

smoothSolver:  Solving for Ux, Initial residual = 0.0527113, Final residual = 0.00299419, No Iterations 1
smoothSolver:  Solving for Uy, Initial residual = 0.0527082, Final residual = 0.00292636, No Iterations 1
smoothSolver:  Solving for Uz, Initial residual = 0.0626296, Final residual = 0.00361882, No Iterations 1
DICPCG:  Solving for p, Initial residual = 0.048886, Final residual = 0.00242678, No Iterations 20
time step continuity errors : sum local = 0.0201866, global = -0.0077117, cumulative = 0.0860153
smoothSolver:  Solving for omega, Initial residual = 0.0274074, Final residual = 0.0013631, No Iterations 1
smoothSolver:  Solving for k, Initial residual = 0.080417, Final residual = 0.00422662, No Iterations 1
ExecutionTime = 30.0239 s  ClockTime = 30 s

volFieldValue Uavg_propeller write:
    volAverage(propeller) of U = (0.0351136 0.0429106 1.79651)

surfaceFieldValue phi_farField write:
    orientedSum(farField) of phi = -0.964814

surfaceFieldValue phi_top write:
    orientedSum(top) of phi = 0.594652

Time = 37s

smoothSolver:  Solving for Ux, Initial residual = 0.051886, Final residual = 0.00297181, No Iterations 1
smoothSolver:  Solving for Uy, Initial residual = 0.051865, Final residual = 0.00290103, No Iterations 1
smoothSolver:  Solving for Uz, Initial residual = 0.0628392, Final residual = 0.00362894, No Iterations 1
DICPCG:  Solving for p, Initial residual = 0.115336, Final residual = 0.00514081, No Iterations 19
time step continuity errors : sum local = 0.0175822, global = -0.00537148, cumulative = 0.0806438
smoothSolver:  Solving for omega, Initial residual = 0.0277023, Final residual = 0.00139401, No Iterations 1
smoothSolver:  Solving for k, Initial residual = 0.0798237, Final residual = 0.00424572, No Iterations 1
ExecutionTime = 30.7514 s  ClockTime = 31 s

volFieldValue Uavg_propeller write:
    volAverage(propeller) of U = (0.0282791 0.0443931 1.58474)

surfaceFieldValue phi_farField write:
    orientedSum(farField) of phi = -1.04418

surfaceFieldValue phi_top write:
    orientedSum(top) of phi = 0.78635

Time = 38s

smoothSolver:  Solving for Ux, Initial residual = 0.0513375, Final residual = 0.0029629, No Iterations 1
smoothSolver:  Solving for Uy, Initial residual = 0.0512874, Final residual = 0.00288738, No Iterations 1
smoothSolver:  Solving for Uz, Initial residual = 0.0630969, Final residual = 0.00364708, No Iterations 1
DICPCG:  Solving for p, Initial residual = 0.323734, Final residual = 0.0143896, No Iterations 18
time step continuity errors : sum local = 0.0170653, global = -0.00194074, cumulative = 0.0787031
smoothSolver:  Solving for omega, Initial residual = 0.0280908, Final residual = 0.00142786, No Iterations 1
smoothSolver:  Solving for k, Initial residual = 0.0789559, Final residual = 0.00422811, No Iterations 1
ExecutionTime = 31.5037 s  ClockTime = 32 s

volFieldValue Uavg_propeller write:
    volAverage(propeller) of U = (0.0179097 0.0444841 1.22402)

surfaceFieldValue phi_farField write:
    orientedSum(farField) of phi = -1.07624

surfaceFieldValue phi_top write:
    orientedSum(top) of phi = 0.983088

Time = 39s

smoothSolver:  Solving for Ux, Initial residual = 0.0508079, Final residual = 0.00295073, No Iterations 1
smoothSolver:  Solving for Uy, Initial residual = 0.0507449, Final residual = 0.00287127, No Iterations 1
smoothSolver:  Solving for Uz, Initial residual = 0.0627266, Final residual = 0.00363656, No Iterations 1
DICPCG:  Solving for p, Initial residual = 0.332251, Final residual = 0.0160029, No Iterations 16
time step continuity errors : sum local = 0.0180312, global = -0.00175851, cumulative = 0.0769445
smoothSolver:  Solving for omega, Initial residual = 0.0286596, Final residual = 0.00146866, No Iterations 1
smoothSolver:  Solving for k, Initial residual = 0.0778625, Final residual = 0.00418949, No Iterations 1
ExecutionTime = 32.2198 s  ClockTime = 33 s

volFieldValue Uavg_propeller write:
    volAverage(propeller) of U = (0.00591073 0.0404651 0.82652)

surfaceFieldValue phi_farField write:
    orientedSum(farField) of phi = -1.22278

surfaceFieldValue phi_top write:
    orientedSum(top) of phi = 1.13837

Time = 40s

--> FOAM Warning : 
    From function void Foam::Function1s::Table<Type>::checkX(Foam::scalar) const [with Type = Foam::Vector2D<double>; Foam::scalar = double]
    in file lnInclude/Table.C at line 107
    "value (-0.694162) underflow"

smoothSolver:  Solving for Ux, Initial residual = 0.0502452, Final residual = 0.00293316, No Iterations 1
smoothSolver:  Solving for Uy, Initial residual = 0.0501791, Final residual = 0.00285054, No Iterations 1
smoothSolver:  Solving for Uz, Initial residual = 0.0617297, Final residual = 0.00359223, No Iterations 1
DICPCG:  Solving for p, Initial residual = 0.206502, Final residual = 0.0100222, No Iterations 14
time step continuity errors : sum local = 0.0176358, global = -3.33496e-05, cumulative = 0.0769112
smoothSolver:  Solving for omega, Initial residual = 0.0294668, Final residual = 0.00151967, No Iterations 1
smoothSolver:  Solving for k, Initial residual = 0.0771194, Final residual = 0.00415185, No Iterations 1
ExecutionTime = 32.9135 s  ClockTime = 33 s

volFieldValue Uavg_propeller write:
    volAverage(propeller) of U = (-0.00646983 0.0309807 0.571746)

surfaceFieldValue phi_farField write:
    orientedSum(farField) of phi = -1.34181

surfaceFieldValue phi_top write:
    orientedSum(top) of phi = 1.34021

Time = 41s

--> FOAM Warning : 
    From function void Foam::Function1s::Table<Type>::checkX(Foam::scalar) const [with Type = Foam::Vector2D<double>; Foam::scalar = double]
    in file lnInclude/Table.C at line 107
    "value (-1.36464) underflow"

smoothSolver:  Solving for Ux, Initial residual = 0.04975, Final residual = 0.00291688, No Iterations 1
smoothSolver:  Solving for Uy, Initial residual = 0.0496832, Final residual = 0.00283141, No Iterations 1
smoothSolver:  Solving for Uz, Initial residual = 0.0603814, Final residual = 0.00352102, No Iterations 1
DICPCG:  Solving for p, Initial residual = 0.167594, Final residual = 0.0081397, No Iterations 14
time step continuity errors : sum local = 0.0170539, global = 0.00248877, cumulative = 0.0794
smoothSolver:  Solving for omega, Initial residual = 0.0305454, Final residual = 0.00158273, No Iterations 1
smoothSolver:  Solving for k, Initial residual = 0.0765028, Final residual = 0.00412688, No Iterations 1
ExecutionTime = 33.6892 s  ClockTime = 34 s

volFieldValue Uavg_propeller write:
    volAverage(propeller) of U = (-0.0181303 0.0163351 0.456277)

surfaceFieldValue phi_farField write:
    orientedSum(farField) of phi = -1.40798

surfaceFieldValue phi_top write:
    orientedSum(top) of phi = 1.52745

Time = 42s

--> FOAM Warning : 
    From function void Foam::Function1s::Table<Type>::checkX(Foam::scalar) const [with Type = Foam::Vector2D<double>; Foam::scalar = double]
    in file lnInclude/Table.C at line 107
    "value (-1.87877) underflow"

smoothSolver:  Solving for Ux, Initial residual = 0.0493085, Final residual = 0.00290181, No Iterations 1
smoothSolver:  Solving for Uy, Initial residual = 0.0492469, Final residual = 0.00281343, No Iterations 1
smoothSolver:  Solving for Uz, Initial residual = 0.05893, Final residual = 0.0034361, No Iterations 1
DICPCG:  Solving for p, Initial residual = 0.150318, Final residual = 0.0070986, No Iterations 15
time step continuity errors : sum local = 0.0161835, global = 0.00334847, cumulative = 0.0827484
smoothSolver:  Solving for omega, Initial residual = 0.0318495, Final residual = 0.00165654, No Iterations 1
smoothSolver:  Solving for k, Initial residual = 0.0762391, Final residual = 0.00412242, No Iterations 1
ExecutionTime = 34.3559 s  ClockTime = 35 s

volFieldValue Uavg_propeller write:
    volAverage(propeller) of U = (-0.0280332 -0.0017378 0.442227)

surfaceFieldValue phi_farField write:
    orientedSum(farField) of phi = -1.52908

surfaceFieldValue phi_top write:
    orientedSum(top) of phi = 1.68981

Time = 43s

--> FOAM Warning : 
    From function void Foam::Function1s::Table<Type>::checkX(Foam::scalar) const [with Type = Foam::Vector2D<double>; Foam::scalar = double]
    in file lnInclude/Table.C at line 107
    "value (-1.95799) underflow"

smoothSolver:  Solving for Ux, Initial residual = 0.0488325, Final residual = 0.00288057, No Iterations 1
smoothSolver:  Solving for Uy, Initial residual = 0.0487731, Final residual = 0.00279044, No Iterations 1
smoothSolver:  Solving for Uz, Initial residual = 0.0577715, Final residual = 0.00336351, No Iterations 1
DICPCG:  Solving for p, Initial residual = 0.137718, Final residual = 0.00645738, No Iterations 14
time step continuity errors : sum local = 0.0154581, global = 0.00285572, cumulative = 0.0856041
smoothSolver:  Solving for omega, Initial residual = 0.0332841, Final residual = 0.00173643, No Iterations 1
smoothSolver:  Solving for k, Initial residual = 0.0762638, Final residual = 0.00414309, No Iterations 1
ExecutionTime = 35.0333 s  ClockTime = 35 s

volFieldValue Uavg_propeller write:
    volAverage(propeller) of U = (-0.0361475 -0.0206157 0.47281)

surfaceFieldValue phi_farField write:
    orientedSum(farField) of phi = -1.70119

surfaceFieldValue phi_top write:
    orientedSum(top) of phi = 1.83827

Time = 44s

--> FOAM Warning : 
    From function void Foam::Function1s::Table<Type>::checkX(Foam::scalar) const [with Type = Foam::Vector2D<double>; Foam::scalar = double]
    in file lnInclude/Table.C at line 107
    "value (-1.7909) underflow"

smoothSolver:  Solving for Ux, Initial residual = 0.0482253, Final residual = 0.00285178, No Iterations 1
smoothSolver:  Solving for Uy, Initial residual = 0.0481694, Final residual = 0.00276222, No Iterations 1
smoothSolver:  Solving for Uz, Initial residual = 0.0567879, Final residual = 0.00331076, No Iterations 1
DICPCG:  Solving for p, Initial residual = 0.13013, Final residual = 0.00555883, No Iterations 14
time step continuity errors : sum local = 0.0135643, global = 0.00158802, cumulative = 0.0871922
smoothSolver:  Solving for omega, Initial residual = 0.0348215, Final residual = 0.00181679, No Iterations 1
smoothSolver:  Solving for k, Initial residual = 0.0764606, Final residual = 0.00418359, No Iterations 1
ExecutionTime = 35.6871 s  ClockTime = 36 s

volFieldValue Uavg_propeller write:
    volAverage(propeller) of U = (-0.0427336 -0.0377939 0.493953)

surfaceFieldValue phi_farField write:
    orientedSum(farField) of phi = -1.89744

surfaceFieldValue phi_top write:
    orientedSum(top) of phi = 1.97366

Time = 45s

--> FOAM Warning : 
    From function void Foam::Function1s::Table<Type>::checkX(Foam::scalar) const [with Type = Foam::Vector2D<double>; Foam::scalar = double]
    in file lnInclude/Table.C at line 107
    "value (-1.68657) underflow"

smoothSolver:  Solving for Ux, Initial residual = 0.0474248, Final residual = 0.00281061, No Iterations 1
smoothSolver:  Solving for Uy, Initial residual = 0.0473806, Final residual = 0.00272344, No Iterations 1
smoothSolver:  Solving for Uz, Initial residual = 0.0557745, Final residual = 0.00325173, No Iterations 1
DICPCG:  Solving for p, Initial residual = 0.120789, Final residual = 0.00553596, No Iterations 13
time step continuity errors : sum local = 0.0139425, global = -0.000249553, cumulative = 0.0869426
smoothSolver:  Solving for omega, Initial residual = 0.0364675, Final residual = 0.00189735, No Iterations 1
smoothSolver:  Solving for k, Initial residual = 0.0769115, Final residual = 0.00424637, No Iterations 1
ExecutionTime = 36.3805 s  ClockTime = 37 s

volFieldValue Uavg_propeller write:
    volAverage(propeller) of U = (-0.0483353 -0.0518314 0.469051)

surfaceFieldValue phi_farField write:
    orientedSum(farField) of phi = -2.11486

surfaceFieldValue phi_top write:
    orientedSum(top) of phi = 2.10288

Time = 46s

--> FOAM Warning : 
    From function void Foam::Function1s::Table<Type>::checkX(Foam::scalar) const [with Type = Foam::Vector2D<double>; Foam::scalar = double]
    in file lnInclude/Table.C at line 107
    "value (-1.81037) underflow"

smoothSolver:  Solving for Ux, Initial residual = 0.0465654, Final residual = 0.00276421, No Iterations 1
smoothSolver:  Solving for Uy, Initial residual = 0.0465446, Final residual = 0.00268075, No Iterations 1
smoothSolver:  Solving for Uz, Initial residual = 0.0549857, Final residual = 0.00319967, No Iterations 1
DICPCG:  Solving for p, Initial residual = 0.112657, Final residual = 0.00491949, No Iterations 13
time step continuity errors : sum local = 0.0127928, global = -0.00187151, cumulative = 0.0850711
smoothSolver:  Solving for omega, Initial residual = 0.038189, Final residual = 0.00197716, No Iterations 1
smoothSolver:  Solving for k, Initial residual = 0.0776303, Final residual = 0.00432524, No Iterations 1
ExecutionTime = 37.0991 s  ClockTime = 37 s

volFieldValue Uavg_propeller write:
    volAverage(propeller) of U = (-0.0531759 -0.0611223 0.388366)

surfaceFieldValue phi_farField write:
    orientedSum(farField) of phi = -2.32036

surfaceFieldValue phi_top write:
    orientedSum(top) of phi = 2.23053

Time = 47s

--> FOAM Warning : 
    From function void Foam::Function1s::Table<Type>::checkX(Foam::scalar) const [with Type = Foam::Vector2D<double>; Foam::scalar = double]
    in file lnInclude/Table.C at line 107
    "value (-2.31071) underflow"

smoothSolver:  Solving for Ux, Initial residual = 0.0457785, Final residual = 0.0027187, No Iterations 1
smoothSolver:  Solving for Uy, Initial residual = 0.0457878, Final residual = 0.00263993, No Iterations 1
smoothSolver:  Solving for Uz, Initial residual = 0.0543128, Final residual = 0.00315206, No Iterations 1
DICPCG:  Solving for p, Initial residual = 0.106092, Final residual = 0.00464151, No Iterations 13
time step continuity errors : sum local = 0.0124203, global = -0.00302313, cumulative = 0.082048
smoothSolver:  Solving for omega, Initial residual = 0.0399671, Final residual = 0.00205524, No Iterations 1
smoothSolver:  Solving for k, Initial residual = 0.0786464, Final residual = 0.00440328, No Iterations 1
ExecutionTime = 37.8156 s  ClockTime = 38 s

volFieldValue Uavg_propeller write:
    volAverage(propeller) of U = (-0.0562224 -0.0637414 0.267792)

surfaceFieldValue phi_farField write:
    orientedSum(farField) of phi = -2.50996

surfaceFieldValue phi_top write:
    orientedSum(top) of phi = 2.36485

Time = 48s

--> FOAM Warning : 
    From function void Foam::Function1s::Table<Type>::checkX(Foam::scalar) const [with Type = Foam::Vector2D<double>; Foam::scalar = double]
    in file lnInclude/Table.C at line 107
    "value (-3.58261) underflow"

smoothSolver:  Solving for Ux, Initial residual = 0.0451134, Final residual = 0.00267509, No Iterations 1
smoothSolver:  Solving for Uy, Initial residual = 0.0451693, Final residual = 0.00260224, No Iterations 1
smoothSolver:  Solving for Uz, Initial residual = 0.0535979, Final residual = 0.00310305, No Iterations 1
DICPCG:  Solving for p, Initial residual = 0.099961, Final residual = 0.00443588, No Iterations 13
time step continuity errors : sum local = 0.0121573, global = -0.00342418, cumulative = 0.0786238
smoothSolver:  Solving for omega, Initial residual = 0.0417164, Final residual = 0.00212946, No Iterations 1
smoothSolver:  Solving for k, Initial residual = 0.0798637, Final residual = 0.00447422, No Iterations 1
ExecutionTime = 38.469 s  ClockTime = 39 s

volFieldValue Uavg_propeller write:
    volAverage(propeller) of U = (-0.0597444 -0.0592857 0.138017)

surfaceFieldValue phi_farField write:
    orientedSum(farField) of phi = -2.67302

surfaceFieldValue phi_top write:
    orientedSum(top) of phi = 2.50865

Time = 49s

--> FOAM Warning : 
    From function void Foam::Function1s::Table<Type>::checkX(Foam::scalar) const [with Type = Foam::Vector2D<double>; Foam::scalar = double]
    in file lnInclude/Table.C at line 107
    "value (-7.32294) underflow"

smoothSolver:  Solving for Ux, Initial residual = 0.044501, Final residual = 0.00263067, No Iterations 1
smoothSolver:  Solving for Uy, Initial residual = 0.0446094, Final residual = 0.0025655, No Iterations 1
smoothSolver:  Solving for Uz, Initial residual = 0.0527389, Final residual = 0.00304457, No Iterations 1
DICPCG:  Solving for p, Initial residual = 0.0940215, Final residual = 0.00423491, No Iterations 13
time step continuity errors : sum local = 0.0118302, global = -0.00297819, cumulative = 0.0756456
smoothSolver:  Solving for omega, Initial residual = 0.0433361, Final residual = 0.00220062, No Iterations 1
smoothSolver:  Solving for k, Initial residual = 0.0812156, Final residual = 0.00453313, No Iterations 1
ExecutionTime = 39.1104 s  ClockTime = 39 s

volFieldValue Uavg_propeller write:
    volAverage(propeller) of U = (-0.0645818 -0.0491667 0.026811)

surfaceFieldValue phi_farField write:
    orientedSum(farField) of phi = -2.80491

surfaceFieldValue phi_top write:
    orientedSum(top) of phi = 2.66195

Time = 50s

--> FOAM Warning : 
    From function void Foam::Function1s::Table<Type>::checkX(Foam::scalar) const [with Type = Foam::Vector2D<double>; Foam::scalar = double]
    in file lnInclude/Table.C at line 107
    "value (-39.0029) underflow"

smoothSolver:  Solving for Ux, Initial residual = 0.0439037, Final residual = 0.00258553, No Iterations 1
smoothSolver:  Solving for Uy, Initial residual = 0.0440734, Final residual = 0.00252881, No Iterations 1
smoothSolver:  Solving for Uz, Initial residual = 0.0516885, Final residual = 0.00297179, No Iterations 1
DICPCG:  Solving for p, Initial residual = 0.0886114, Final residual = 0.00409998, No Iterations 13
time step continuity errors : sum local = 0.0115882, global = -0.0017696, cumulative = 0.073876
smoothSolver:  Solving for omega, Initial residual = 0.044728, Final residual = 0.00226379, No Iterations 1
smoothSolver:  Solving for k, Initial residual = 0.0822294, Final residual = 0.00456997, No Iterations 1
ExecutionTime = 40.8227 s  ClockTime = 41 s

volFieldValue Uavg_propeller write:
    volAverage(propeller) of U = (-0.072002 -0.038264 -0.0464426)

surfaceFieldValue phi_farField write:
    orientedSum(farField) of phi = -2.90764

surfaceFieldValue phi_top write:
    orientedSum(top) of phi = 2.8227

Time = 51s

--> FOAM Warning : 
    From function void Foam::Function1s::Table<Type>::checkX(Foam::scalar) const [with Type = Foam::Vector2D<double>; Foam::scalar = double]
    in file lnInclude/Table.C at line 107
    "value (-22.3959) underflow"

smoothSolver:  Solving for Ux, Initial residual = 0.0432893, Final residual = 0.00253855, No Iterations 1
smoothSolver:  Solving for Uy, Initial residual = 0.0435292, Final residual = 0.0024902, No Iterations 1
smoothSolver:  Solving for Uz, Initial residual = 0.0504534, Final residual = 0.0028827, No Iterations 1
DICPCG:  Solving for p, Initial residual = 0.0841371, Final residual = 0.00392001, No Iterations 13
time step continuity errors : sum local = 0.0111008, global = -0.000107093, cumulative = 0.0737689
smoothSolver:  Solving for omega, Initial residual = 0.0458442, Final residual = 0.00231066, No Iterations 1
smoothSolver:  Solving for k, Initial residual = 0.0830502, Final residual = 0.0045821, No Iterations 1
ExecutionTime = 41.5577 s  ClockTime = 42 s

volFieldValue Uavg_propeller write:
    volAverage(propeller) of U = (-0.0813421 -0.0294502 -0.0790161)

surfaceFieldValue phi_farField write:
    orientedSum(farField) of phi = -2.99255

surfaceFieldValue phi_top write:
    orientedSum(top) of phi = 2.98741

Time = 52s

--> FOAM Warning : 
    From function void Foam::Function1s::Table<Type>::checkX(Foam::scalar) const [with Type = Foam::Vector2D<double>; Foam::scalar = double]
    in file lnInclude/Table.C at line 107
    "value (-13.039) underflow"

smoothSolver:  Solving for Ux, Initial residual = 0.0426063, Final residual = 0.00248704, No Iterations 1
smoothSolver:  Solving for Uy, Initial residual = 0.0429185, Final residual = 0.00244671, No Iterations 1
smoothSolver:  Solving for Uz, Initial residual = 0.0490718, Final residual = 0.0027787, No Iterations 1
DICPCG:  Solving for p, Initial residual = 0.0808996, Final residual = 0.00384043, No Iterations 13
time step continuity errors : sum local = 0.0107583, global = 0.00165652, cumulative = 0.0754254
smoothSolver:  Solving for omega, Initial residual = 0.0466686, Final residual = 0.0023424, No Iterations 1
smoothSolver:  Solving for k, Initial residual = 0.0834378, Final residual = 0.0045581, No Iterations 1
ExecutionTime = 42.2877 s  ClockTime = 42 s

volFieldValue Uavg_propeller write:
    volAverage(propeller) of U = (-0.0904079 -0.0224293 -0.0823942)

surfaceFieldValue phi_farField write:
    orientedSum(farField) of phi = -3.07319

surfaceFieldValue phi_top write:
    orientedSum(top) of phi = 3.15271

Time = 53s

--> FOAM Warning : 
    From function void Foam::Function1s::Table<Type>::checkX(Foam::scalar) const [with Type = Foam::Vector2D<double>; Foam::scalar = double]
    in file lnInclude/Table.C at line 107
    "value (-12.4916) underflow"

smoothSolver:  Solving for Ux, Initial residual = 0.0418052, Final residual = 0.00242831, No Iterations 1
smoothSolver:  Solving for Uy, Initial residual = 0.0421913, Final residual = 0.00239577, No Iterations 1
smoothSolver:  Solving for Uz, Initial residual = 0.0475883, Final residual = 0.0026651, No Iterations 1
DICPCG:  Solving for p, Initial residual = 0.0786742, Final residual = 0.00355151, No Iterations 14
time step continuity errors : sum local = 0.0097221, global = 0.00305634, cumulative = 0.0784818
smoothSolver:  Solving for omega, Initial residual = 0.0472906, Final residual = 0.00236108, No Iterations 1
smoothSolver:  Solving for k, Initial residual = 0.0832083, Final residual = 0.00449875, No Iterations 1
ExecutionTime = 42.9628 s  ClockTime = 43 s

volFieldValue Uavg_propeller write:
    volAverage(propeller) of U = (-0.0979454 -0.0167775 -0.0726499)

surfaceFieldValue phi_farField write:
    orientedSum(farField) of phi = -3.168

surfaceFieldValue phi_top write:
    orientedSum(top) of phi = 3.3147

Time = 54s

--> FOAM Warning : 
    From function void Foam::Function1s::Table<Type>::checkX(Foam::scalar) const [with Type = Foam::Vector2D<double>; Foam::scalar = double]
    in file lnInclude/Table.C at line 107
    "value (-14.2088) underflow"

smoothSolver:  Solving for Ux, Initial residual = 0.0408756, Final residual = 0.00236156, No Iterations 1
smoothSolver:  Solving for Uy, Initial residual = 0.0413263, Final residual = 0.00233594, No Iterations 1
smoothSolver:  Solving for Uz, Initial residual = 0.0459727, Final residual = 0.00254225, No Iterations 1
DICPCG:  Solving for p, Initial residual = 0.077189, Final residual = 0.00384421, No Iterations 15
time step continuity errors : sum local = 0.0101448, global = 0.00357092, cumulative = 0.0820527
smoothSolver:  Solving for omega, Initial residual = 0.0477295, Final residual = 0.00236734, No Iterations 1
smoothSolver:  Solving for k, Initial residual = 0.0828798, Final residual = 0.0044325, No Iterations 1
ExecutionTime = 43.6465 s  ClockTime = 44 s

volFieldValue Uavg_propeller write:
    volAverage(propeller) of U = (-0.103808 -0.0118851 -0.0641727)

surfaceFieldValue phi_farField write:
    orientedSum(farField) of phi = -3.29943

surfaceFieldValue phi_top write:
    orientedSum(top) of phi = 3.47084

Time = 55s

--> FOAM Warning : 
    From function void Foam::Function1s::Table<Type>::checkX(Foam::scalar) const [with Type = Foam::Vector2D<double>; Foam::scalar = double]
    in file lnInclude/Table.C at line 107
    "value (-16.1262) underflow"

smoothSolver:  Solving for Ux, Initial residual = 0.0398259, Final residual = 0.00228705, No Iterations 1
smoothSolver:  Solving for Uy, Initial residual = 0.0403179, Final residual = 0.0022673, No Iterations 1
smoothSolver:  Solving for Uz, Initial residual = 0.0442093, Final residual = 0.00241188, No Iterations 1
DICPCG:  Solving for p, Initial residual = 0.0768572, Final residual = 0.00348325, No Iterations 21
time step continuity errors : sum local = 0.00872707, global = 0.00037462, cumulative = 0.0824273
smoothSolver:  Solving for omega, Initial residual = 0.0479907, Final residual = 0.00236262, No Iterations 1
smoothSolver:  Solving for k, Initial residual = 0.0821809, Final residual = 0.00435053, No Iterations 1
ExecutionTime = 44.3707 s  ClockTime = 44 s

volFieldValue Uavg_propeller write:
    volAverage(propeller) of U = (-0.107898 -0.00677244 -0.0692984)

surfaceFieldValue phi_farField write:
    orientedSum(farField) of phi = -3.58461

surfaceFieldValue phi_top write:
    orientedSum(top) of phi = 3.60259

Time = 56s

--> FOAM Warning : 
    From function void Foam::Function1s::Table<Type>::checkX(Foam::scalar) const [with Type = Foam::Vector2D<double>; Foam::scalar = double]
    in file lnInclude/Table.C at line 107
    "value (-14.9109) underflow"

smoothSolver:  Solving for Ux, Initial residual = 0.0386105, Final residual = 0.00220258, No Iterations 1
smoothSolver:  Solving for Uy, Initial residual = 0.0391388, Final residual = 0.00218761, No Iterations 1
smoothSolver:  Solving for Uz, Initial residual = 0.042048, Final residual = 0.00226416, No Iterations 1
DICPCG:  Solving for p, Initial residual = 0.0800427, Final residual = 0.00361679, No Iterations 20
time step continuity errors : sum local = 0.0082275, global = 0.000300413, cumulative = 0.0827277
smoothSolver:  Solving for omega, Initial residual = 0.0479678, Final residual = 0.00233935, No Iterations 1
smoothSolver:  Solving for k, Initial residual = 0.0814022, Final residual = 0.00424012, No Iterations 1
ExecutionTime = 45.085 s  ClockTime = 45 s

volFieldValue Uavg_propeller write:
    volAverage(propeller) of U = (-0.110352 -0.00149506 -0.0938399)

surfaceFieldValue phi_farField write:
    orientedSum(farField) of phi = -3.74327

surfaceFieldValue phi_top write:
    orientedSum(top) of phi = 3.75769

Time = 57s

--> FOAM Warning : 
    From function void Foam::Function1s::Table<Type>::checkX(Foam::scalar) const [with Type = Foam::Vector2D<double>; Foam::scalar = double]
    in file lnInclude/Table.C at line 107
    "value (-10.9291) underflow"

smoothSolver:  Solving for Ux, Initial residual = 0.037394, Final residual = 0.00211416, No Iterations 1
smoothSolver:  Solving for Uy, Initial residual = 0.0379646, Final residual = 0.00210442, No Iterations 1
smoothSolver:  Solving for Uz, Initial residual = 0.0399358, Final residual = 0.00212103, No Iterations 1
DICPCG:  Solving for p, Initial residual = 0.0828966, Final residual = 0.00351646, No Iterations 11
time step continuity errors : sum local = 0.0073406, global = 0.00298091, cumulative = 0.0857086
smoothSolver:  Solving for omega, Initial residual = 0.047599, Final residual = 0.00229834, No Iterations 1
smoothSolver:  Solving for k, Initial residual = 0.0805436, Final residual = 0.00410969, No Iterations 1
ExecutionTime = 45.7657 s  ClockTime = 46 s

volFieldValue Uavg_propeller write:
    volAverage(propeller) of U = (-0.112011 0.00471878 -0.137631)

surfaceFieldValue phi_farField write:
    orientedSum(farField) of phi = -3.76638

surfaceFieldValue phi_top write:
    orientedSum(top) of phi = 3.90947

Time = 58s

--> FOAM Warning : 
    From function void Foam::Function1s::Table<Type>::checkX(Foam::scalar) const [with Type = Foam::Vector2D<double>; Foam::scalar = double]
    in file lnInclude/Table.C at line 107
    "value (-7.34446) underflow"

smoothSolver:  Solving for Ux, Initial residual = 0.0362617, Final residual = 0.00202931, No Iterations 1
smoothSolver:  Solving for Uy, Initial residual = 0.0368971, Final residual = 0.00202667, No Iterations 1
smoothSolver:  Solving for Uz, Initial residual = 0.0382158, Final residual = 0.00199976, No Iterations 1
DICPCG:  Solving for p, Initial residual = 0.0811245, Final residual = 0.00375312, No Iterations 10
time step continuity errors : sum local = 0.00761623, global = 0.00220898, cumulative = 0.0879176
smoothSolver:  Solving for omega, Initial residual = 0.0468524, Final residual = 0.00223936, No Iterations 1
smoothSolver:  Solving for k, Initial residual = 0.0792909, Final residual = 0.00397007, No Iterations 1
ExecutionTime = 46.4496 s  ClockTime = 46 s

volFieldValue Uavg_propeller write:
    volAverage(propeller) of U = (-0.112657 0.0114473 -0.195418)

surfaceFieldValue phi_farField write:
    orientedSum(farField) of phi = -3.94517

surfaceFieldValue phi_top write:
    orientedSum(top) of phi = 4.0512

Time = 59s

--> FOAM Warning : 
    From function void Foam::Function1s::Table<Type>::checkX(Foam::scalar) const [with Type = Foam::Vector2D<double>; Foam::scalar = double]
    in file lnInclude/Table.C at line 107
    "value (-5.06291) underflow"

smoothSolver:  Solving for Ux, Initial residual = 0.0351042, Final residual = 0.00194201, No Iterations 1
smoothSolver:  Solving for Uy, Initial residual = 0.0358086, Final residual = 0.00194663, No Iterations 1
smoothSolver:  Solving for Uz, Initial residual = 0.0364072, Final residual = 0.00187224, No Iterations 1
DICPCG:  Solving for p, Initial residual = 0.0794796, Final residual = 0.003752, No Iterations 10
time step continuity errors : sum local = 0.00736001, global = 0.00198831, cumulative = 0.0899059
smoothSolver:  Solving for omega, Initial residual = 0.0457312, Final residual = 0.0021647, No Iterations 1
smoothSolver:  Solving for k, Initial residual = 0.0775814, Final residual = 0.00381911, No Iterations 1
ExecutionTime = 47.1496 s  ClockTime = 47 s

volFieldValue Uavg_propeller write:
    volAverage(propeller) of U = (-0.112876 0.0181275 -0.257263)

surfaceFieldValue phi_farField write:
    orientedSum(farField) of phi = -4.10252

surfaceFieldValue phi_top write:
    orientedSum(top) of phi = 4.19796

Time = 60s

--> FOAM Warning : 
    From function void Foam::Function1s::Table<Type>::checkX(Foam::scalar) const [with Type = Foam::Vector2D<double>; Foam::scalar = double]
    in file lnInclude/Table.C at line 107
    "value (-3.74704) underflow"

smoothSolver:  Solving for Ux, Initial residual = 0.0338925, Final residual = 0.00185193, No Iterations 1
smoothSolver:  Solving for Uy, Initial residual = 0.0346609, Final residual = 0.00186367, No Iterations 1
smoothSolver:  Solving for Uz, Initial residual = 0.0345074, Final residual = 0.00173843, No Iterations 1
DICPCG:  Solving for p, Initial residual = 0.0776738, Final residual = 0.0033673, No Iterations 11
time step continuity errors : sum local = 0.0063848, global = 0.00218244, cumulative = 0.0920884
smoothSolver:  Solving for omega, Initial residual = 0.0441564, Final residual = 0.00206581, No Iterations 1
smoothSolver:  Solving for k, Initial residual = 0.0755171, Final residual = 0.00365812, No Iterations 1
ExecutionTime = 47.8924 s  ClockTime = 48 s

volFieldValue Uavg_propeller write:
    volAverage(propeller) of U = (-0.112376 0.0241725 -0.312913)

surfaceFieldValue phi_farField write:
    orientedSum(farField) of phi = -4.2463

surfaceFieldValue phi_top write:
    orientedSum(top) of phi = 4.35106

Time = 61s

--> FOAM Warning : 
    From function void Foam::Function1s::Table<Type>::checkX(Foam::scalar) const [with Type = Foam::Vector2D<double>; Foam::scalar = double]
    in file lnInclude/Table.C at line 107
    "value (-2.99861) underflow"

smoothSolver:  Solving for Ux, Initial residual = 0.0325859, Final residual = 0.001757, No Iterations 1
smoothSolver:  Solving for Uy, Initial residual = 0.033408, Final residual = 0.0017747, No Iterations 1
smoothSolver:  Solving for Uz, Initial residual = 0.032535, Final residual = 0.0016009, No Iterations 1
DICPCG:  Solving for p, Initial residual = 0.0759593, Final residual = 0.00353566, No Iterations 13
time step continuity errors : sum local = 0.00645326, global = 0.0017893, cumulative = 0.0938777
smoothSolver:  Solving for omega, Initial residual = 0.0423032, Final residual = 0.00194418, No Iterations 1
smoothSolver:  Solving for k, Initial residual = 0.0731446, Final residual = 0.00348947, No Iterations 1
ExecutionTime = 48.5816 s  ClockTime = 48 s

volFieldValue Uavg_propeller write:
    volAverage(propeller) of U = (-0.110654 0.0291829 -0.357612)

surfaceFieldValue phi_farField write:
    orientedSum(farField) of phi = -4.42176

surfaceFieldValue phi_top write:
[...]
smoothSolver:  Solving for Uy, Initial residual = 0.00279761, Final residual = 0.000263769, No Iterations 1
smoothSolver:  Solving for Uz, Initial residual = 0.00569325, Final residual = 0.000530612, No Iterations 1
DICPCG:  Solving for p, Initial residual = 0.0347028, Final residual = 0.00161459, No Iterations 17
time step continuity errors : sum local = 0.000106085, global = -1.71078e-05, cumulative = 0.123367
smoothSolver:  Solving for omega, Initial residual = 0.00223483, Final residual = 0.000167732, No Iterations 1
smoothSolver:  Solving for k, Initial residual = 0.00493957, Final residual = 0.000453199, No Iterations 1
ExecutionTime = 700.271 s  ClockTime = 701 s

volFieldValue Uavg_propeller write:
    volAverage(propeller) of U = (0.348373 -0.324845 -1.48733)

surfaceFieldValue phi_farField write:
    orientedSum(farField) of phi = 0.220425

surfaceFieldValue phi_top write:
    orientedSum(top) of phi = -0.221246

Time = 983s

smoothSolver:  Solving for Ux, Initial residual = 0.00376011, Final residual = 0.000359088, No Iterations 1
smoothSolver:  Solving for Uy, Initial residual = 0.00278068, Final residual = 0.00026196, No Iterations 1
smoothSolver:  Solving for Uz, Initial residual = 0.00567082, Final residual = 0.000527981, No Iterations 1
DICPCG:  Solving for p, Initial residual = 0.0344263, Final residual = 0.00159737, No Iterations 17
time step continuity errors : sum local = 0.000105341, global = -1.74532e-05, cumulative = 0.12335
smoothSolver:  Solving for omega, Initial residual = 0.00222943, Final residual = 0.000166807, No Iterations 1
smoothSolver:  Solving for k, Initial residual = 0.00491704, Final residual = 0.000450856, No Iterations 1
ExecutionTime = 700.965 s  ClockTime = 701 s

volFieldValue Uavg_propeller write:
    volAverage(propeller) of U = (0.348163 -0.32475 -1.48735)

surfaceFieldValue phi_farField write:
    orientedSum(farField) of phi = 0.221984

surfaceFieldValue phi_top write:
    orientedSum(top) of phi = -0.222822

Time = 984s

smoothSolver:  Solving for Ux, Initial residual = 0.00374776, Final residual = 0.000357691, No Iterations 1
smoothSolver:  Solving for Uy, Initial residual = 0.00276363, Final residual = 0.000260103, No Iterations 1
smoothSolver:  Solving for Uz, Initial residual = 0.00564772, Final residual = 0.00052516, No Iterations 1
DICPCG:  Solving for p, Initial residual = 0.0344633, Final residual = 0.00172, No Iterations 16
time step continuity errors : sum local = 0.000113967, global = -1.97542e-05, cumulative = 0.12333
smoothSolver:  Solving for omega, Initial residual = 0.00222455, Final residual = 0.000166075, No Iterations 1
smoothSolver:  Solving for k, Initial residual = 0.00489238, Final residual = 0.000448388, No Iterations 1
ExecutionTime = 701.665 s  ClockTime = 702 s

volFieldValue Uavg_propeller write:
    volAverage(propeller) of U = (0.347946 -0.324659 -1.48737)

surfaceFieldValue phi_farField write:
    orientedSum(farField) of phi = 0.223364

surfaceFieldValue phi_top write:
    orientedSum(top) of phi = -0.224312

Time = 985s

smoothSolver:  Solving for Ux, Initial residual = 0.00373438, Final residual = 0.000356207, No Iterations 1
smoothSolver:  Solving for Uy, Initial residual = 0.00274619, Final residual = 0.000258215, No Iterations 1
smoothSolver:  Solving for Uz, Initial residual = 0.00562149, Final residual = 0.00052221, No Iterations 1
DICPCG:  Solving for p, Initial residual = 0.0342606, Final residual = 0.00170633, No Iterations 16
time step continuity errors : sum local = 0.000113506, global = -1.97337e-05, cumulative = 0.12331
smoothSolver:  Solving for omega, Initial residual = 0.00221733, Final residual = 0.000165142, No Iterations 1
smoothSolver:  Solving for k, Initial residual = 0.00486774, Final residual = 0.000445868, No Iterations 1
ExecutionTime = 702.378 s  ClockTime = 703 s

volFieldValue Uavg_propeller write:
    volAverage(propeller) of U = (0.347722 -0.324575 -1.48738)

surfaceFieldValue phi_farField write:
    orientedSum(farField) of phi = 0.224739

surfaceFieldValue phi_top write:
    orientedSum(top) of phi = -0.225686

Time = 986s

smoothSolver:  Solving for Ux, Initial residual = 0.00372003, Final residual = 0.000354666, No Iterations 1
smoothSolver:  Solving for Uy, Initial residual = 0.00272846, Final residual = 0.000256292, No Iterations 1
smoothSolver:  Solving for Uz, Initial residual = 0.00559265, Final residual = 0.000519113, No Iterations 1
DICPCG:  Solving for p, Initial residual = 0.0338451, Final residual = 0.00168755, No Iterations 16
time step continuity errors : sum local = 0.000112677, global = -1.9412e-05, cumulative = 0.123291
smoothSolver:  Solving for omega, Initial residual = 0.00221035, Final residual = 0.000164144, No Iterations 1
smoothSolver:  Solving for k, Initial residual = 0.00484437, Final residual = 0.000443481, No Iterations 1
ExecutionTime = 703.135 s  ClockTime = 703 s

volFieldValue Uavg_propeller write:
    volAverage(propeller) of U = (0.347489 -0.324498 -1.48739)

surfaceFieldValue phi_farField write:
    orientedSum(farField) of phi = 0.226048

surfaceFieldValue phi_top write:
    orientedSum(top) of phi = -0.22698

Time = 987s

smoothSolver:  Solving for Ux, Initial residual = 0.00370533, Final residual = 0.000353079, No Iterations 1
smoothSolver:  Solving for Uy, Initial residual = 0.00271041, Final residual = 0.000254333, No Iterations 1
smoothSolver:  Solving for Uz, Initial residual = 0.00556421, Final residual = 0.000515903, No Iterations 1
DICPCG:  Solving for p, Initial residual = 0.0334104, Final residual = 0.00166014, No Iterations 16
time step continuity errors : sum local = 0.00011151, global = -1.87806e-05, cumulative = 0.123272
smoothSolver:  Solving for omega, Initial residual = 0.00220428, Final residual = 0.000163244, No Iterations 1
smoothSolver:  Solving for k, Initial residual = 0.00481961, Final residual = 0.000440952, No Iterations 1
ExecutionTime = 703.823 s  ClockTime = 704 s

volFieldValue Uavg_propeller write:
    volAverage(propeller) of U = (0.34725 -0.324429 -1.4874)

surfaceFieldValue phi_farField write:
    orientedSum(farField) of phi = 0.227261

surfaceFieldValue phi_top write:
    orientedSum(top) of phi = -0.228162

Time = 988s

smoothSolver:  Solving for Ux, Initial residual = 0.00369005, Final residual = 0.000351458, No Iterations 1
smoothSolver:  Solving for Uy, Initial residual = 0.0026918, Final residual = 0.000252325, No Iterations 1
smoothSolver:  Solving for Uz, Initial residual = 0.00553486, Final residual = 0.00051258, No Iterations 1
DICPCG:  Solving for p, Initial residual = 0.0332077, Final residual = 0.00162439, No Iterations 16
time step continuity errors : sum local = 0.000109884, global = -1.79747e-05, cumulative = 0.123254
smoothSolver:  Solving for omega, Initial residual = 0.00219768, Final residual = 0.000162369, No Iterations 1
smoothSolver:  Solving for k, Initial residual = 0.00479208, Final residual = 0.000438214, No Iterations 1
ExecutionTime = 704.533 s  ClockTime = 705 s

volFieldValue Uavg_propeller write:
    volAverage(propeller) of U = (0.347005 -0.32437 -1.48741)

surfaceFieldValue phi_farField write:
    orientedSum(farField) of phi = 0.228358

surfaceFieldValue phi_top write:
    orientedSum(top) of phi = -0.229221

Time = 989s

smoothSolver:  Solving for Ux, Initial residual = 0.00367395, Final residual = 0.000349808, No Iterations 1
smoothSolver:  Solving for Uy, Initial residual = 0.00267301, Final residual = 0.000250286, No Iterations 1
smoothSolver:  Solving for Uz, Initial residual = 0.00550289, Final residual = 0.000509198, No Iterations 1
DICPCG:  Solving for p, Initial residual = 0.0328284, Final residual = 0.00156209, No Iterations 16
time step continuity errors : sum local = 0.000106627, global = -1.69187e-05, cumulative = 0.123237
smoothSolver:  Solving for omega, Initial residual = 0.00218857, Final residual = 0.000161454, No Iterations 1
smoothSolver:  Solving for k, Initial residual = 0.00476814, Final residual = 0.000435809, No Iterations 1
ExecutionTime = 705.221 s  ClockTime = 705 s

volFieldValue Uavg_propeller write:
    volAverage(propeller) of U = (0.346754 -0.324321 -1.48741)

surfaceFieldValue phi_farField write:
    orientedSum(farField) of phi = 0.229345

surfaceFieldValue phi_top write:
    orientedSum(top) of phi = -0.230157

Time = 990s

smoothSolver:  Solving for Ux, Initial residual = 0.00365757, Final residual = 0.00034812, No Iterations 1
smoothSolver:  Solving for Uy, Initial residual = 0.00265376, Final residual = 0.000248212, No Iterations 1
smoothSolver:  Solving for Uz, Initial residual = 0.00547171, Final residual = 0.000505718, No Iterations 1
DICPCG:  Solving for p, Initial residual = 0.0325835, Final residual = 0.00162897, No Iterations 15
time step continuity errors : sum local = 0.000111875, global = -1.74674e-05, cumulative = 0.12322
smoothSolver:  Solving for omega, Initial residual = 0.0021823, Final residual = 0.000160642, No Iterations 1
smoothSolver:  Solving for k, Initial residual = 0.00473983, Final residual = 0.000432917, No Iterations 1
ExecutionTime = 705.967 s  ClockTime = 706 s

volFieldValue Uavg_propeller write:
    volAverage(propeller) of U = (0.346497 -0.324284 -1.48742)

surfaceFieldValue phi_farField write:
    orientedSum(farField) of phi = 0.230167

surfaceFieldValue phi_top write:
    orientedSum(top) of phi = -0.231005

Time = 991s

smoothSolver:  Solving for Ux, Initial residual = 0.00364022, Final residual = 0.000346383, No Iterations 1
smoothSolver:  Solving for Uy, Initial residual = 0.00263375, Final residual = 0.000246097, No Iterations 1
smoothSolver:  Solving for Uz, Initial residual = 0.00543533, Final residual = 0.000502004, No Iterations 1
DICPCG:  Solving for p, Initial residual = 0.0322522, Final residual = 0.00158574, No Iterations 15
time step continuity errors : sum local = 0.000108957, global = -1.63013e-05, cumulative = 0.123204
smoothSolver:  Solving for omega, Initial residual = 0.0021726, Final residual = 0.000159512, No Iterations 1
smoothSolver:  Solving for k, Initial residual = 0.00471206, Final residual = 0.00043042, No Iterations 1
ExecutionTime = 706.658 s  ClockTime = 707 s

volFieldValue Uavg_propeller write:
    volAverage(propeller) of U = (0.346231 -0.324259 -1.48742)

surfaceFieldValue phi_farField write:
    orientedSum(farField) of phi = 0.230965

surfaceFieldValue phi_top write:
    orientedSum(top) of phi = -0.231747

Time = 992s

smoothSolver:  Solving for Ux, Initial residual = 0.00362261, Final residual = 0.000344626, No Iterations 1
smoothSolver:  Solving for Uy, Initial residual = 0.00261364, Final residual = 0.000243964, No Iterations 1
smoothSolver:  Solving for Uz, Initial residual = 0.00539823, Final residual = 0.000498178, No Iterations 1
DICPCG:  Solving for p, Initial residual = 0.0318691, Final residual = 0.00154827, No Iterations 15
time step continuity errors : sum local = 0.0001067, global = -1.51794e-05, cumulative = 0.123188
smoothSolver:  Solving for omega, Initial residual = 0.00216323, Final residual = 0.000158645, No Iterations 1
smoothSolver:  Solving for k, Initial residual = 0.00468507, Final residual = 0.000427721, No Iterations 1
ExecutionTime = 707.347 s  ClockTime = 708 s

volFieldValue Uavg_propeller write:
    volAverage(propeller) of U = (0.345958 -0.324249 -1.48742)

surfaceFieldValue phi_farField write:
    orientedSum(farField) of phi = 0.231645

surfaceFieldValue phi_top write:
    orientedSum(top) of phi = -0.232374

Time = 993s

smoothSolver:  Solving for Ux, Initial residual = 0.00360463, Final residual = 0.000342863, No Iterations 1
smoothSolver:  Solving for Uy, Initial residual = 0.00259321, Final residual = 0.0002418, No Iterations 1
smoothSolver:  Solving for Uz, Initial residual = 0.00535904, Final residual = 0.000494167, No Iterations 1
DICPCG:  Solving for p, Initial residual = 0.0317431, Final residual = 0.00152174, No Iterations 15
time step continuity errors : sum local = 0.00010543, global = -1.41245e-05, cumulative = 0.123174
smoothSolver:  Solving for omega, Initial residual = 0.00215296, Final residual = 0.000157605, No Iterations 1
smoothSolver:  Solving for k, Initial residual = 0.00465692, Final residual = 0.000425064, No Iterations 1
ExecutionTime = 708.03 s  ClockTime = 708 s

volFieldValue Uavg_propeller write:
    volAverage(propeller) of U = (0.34568 -0.324256 -1.48741)

surfaceFieldValue phi_farField write:
    orientedSum(farField) of phi = 0.232192

surfaceFieldValue phi_top write:
    orientedSum(top) of phi = -0.23287

Time = 994s

smoothSolver:  Solving for Ux, Initial residual = 0.00358645, Final residual = 0.000341089, No Iterations 1
smoothSolver:  Solving for Uy, Initial residual = 0.00257204, Final residual = 0.000239614, No Iterations 1
smoothSolver:  Solving for Uz, Initial residual = 0.00531893, Final residual = 0.000490164, No Iterations 1
DICPCG:  Solving for p, Initial residual = 0.0314534, Final residual = 0.00147742, No Iterations 15
time step continuity errors : sum local = 0.000102635, global = -1.30746e-05, cumulative = 0.123161
smoothSolver:  Solving for omega, Initial residual = 0.00214481, Final residual = 0.000156876, No Iterations 1
smoothSolver:  Solving for k, Initial residual = 0.00463217, Final residual = 0.000422611, No Iterations 1
ExecutionTime = 708.732 s  ClockTime = 709 s

volFieldValue Uavg_propeller write:
    volAverage(propeller) of U = (0.345396 -0.324282 -1.48741)

surfaceFieldValue phi_farField write:
    orientedSum(farField) of phi = 0.232616

surfaceFieldValue phi_top write:
    orientedSum(top) of phi = -0.233244

Time = 995s

smoothSolver:  Solving for Ux, Initial residual = 0.00356797, Final residual = 0.000339309, No Iterations 1
smoothSolver:  Solving for Uy, Initial residual = 0.00255073, Final residual = 0.000237419, No Iterations 1
smoothSolver:  Solving for Uz, Initial residual = 0.0052804, Final residual = 0.000486217, No Iterations 1
DICPCG:  Solving for p, Initial residual = 0.0310872, Final residual = 0.00141575, No Iterations 15
time step continuity errors : sum local = 9.90203e-05, global = -1.19759e-05, cumulative = 0.123149
smoothSolver:  Solving for omega, Initial residual = 0.00213405, Final residual = 0.000156116, No Iterations 1
smoothSolver:  Solving for k, Initial residual = 0.00460089, Final residual = 0.000419715, No Iterations 1
ExecutionTime = 709.445 s  ClockTime = 710 s

volFieldValue Uavg_propeller write:
    volAverage(propeller) of U = (0.345105 -0.324328 -1.4874)

surfaceFieldValue phi_farField write:
    orientedSum(farField) of phi = 0.23293

surfaceFieldValue phi_top write:
    orientedSum(top) of phi = -0.233505

Time = 996s

smoothSolver:  Solving for Ux, Initial residual = 0.0035492, Final residual = 0.000337517, No Iterations 1
smoothSolver:  Solving for Uy, Initial residual = 0.00252882, Final residual = 0.000235203, No Iterations 1
smoothSolver:  Solving for Uz, Initial residual = 0.0052385, Final residual = 0.000482047, No Iterations 1
DICPCG:  Solving for p, Initial residual = 0.0306102, Final residual = 0.00136634, No Iterations 15
time step continuity errors : sum local = 9.60404e-05, global = -1.07691e-05, cumulative = 0.123138
smoothSolver:  Solving for omega, Initial residual = 0.00212032, Final residual = 0.000154896, No Iterations 1
smoothSolver:  Solving for k, Initial residual = 0.00457232, Final residual = 0.000417214, No Iterations 1
ExecutionTime = 710.146 s  ClockTime = 710 s

volFieldValue Uavg_propeller write:
    volAverage(propeller) of U = (0.344809 -0.324395 -1.48739)

surfaceFieldValue phi_farField write:
    orientedSum(farField) of phi = 0.233146

surfaceFieldValue phi_top write:
    orientedSum(top) of phi = -0.233663

Time = 997s

smoothSolver:  Solving for Ux, Initial residual = 0.00353034, Final residual = 0.000335725, No Iterations 1
smoothSolver:  Solving for Uy, Initial residual = 0.00250697, Final residual = 0.000232986, No Iterations 1
smoothSolver:  Solving for Uz, Initial residual = 0.0051954, Final residual = 0.000477803, No Iterations 1
DICPCG:  Solving for p, Initial residual = 0.0305125, Final residual = 0.00151722, No Iterations 14
time step continuity errors : sum local = 0.000106675, global = -1.00478e-05, cumulative = 0.123128
smoothSolver:  Solving for omega, Initial residual = 0.00210723, Final residual = 0.000154028, No Iterations 1
smoothSolver:  Solving for k, Initial residual = 0.00454191, Final residual = 0.000414422, No Iterations 1
ExecutionTime = 710.838 s  ClockTime = 711 s

volFieldValue Uavg_propeller write:
    volAverage(propeller) of U = (0.344507 -0.324485 -1.48738)

surfaceFieldValue phi_farField write:
    orientedSum(farField) of phi = 0.233224

surfaceFieldValue phi_top write:
    orientedSum(top) of phi = -0.233707

Time = 998s

smoothSolver:  Solving for Ux, Initial residual = 0.00351095, Final residual = 0.000333917, No Iterations 1
smoothSolver:  Solving for Uy, Initial residual = 0.00248461, Final residual = 0.000230758, No Iterations 1
smoothSolver:  Solving for Uz, Initial residual = 0.00515023, Final residual = 0.00047341, No Iterations 1
DICPCG:  Solving for p, Initial residual = 0.0301566, Final residual = 0.00149052, No Iterations 14
time step continuity errors : sum local = 0.000105107, global = -8.32849e-06, cumulative = 0.12312
smoothSolver:  Solving for omega, Initial residual = 0.00209503, Final residual = 0.000152888, No Iterations 1
smoothSolver:  Solving for k, Initial residual = 0.0045152, Final residual = 0.000411941, No Iterations 1
ExecutionTime = 711.526 s  ClockTime = 712 s

volFieldValue Uavg_propeller write:
    volAverage(propeller) of U = (0.344197 -0.3246 -1.48736)

surfaceFieldValue phi_farField write:
    orientedSum(farField) of phi = 0.233262

surfaceFieldValue phi_top write:
    orientedSum(top) of phi = -0.233661

Time = 999s

smoothSolver:  Solving for Ux, Initial residual = 0.0034919, Final residual = 0.000332133, No Iterations 1
smoothSolver:  Solving for Uy, Initial residual = 0.00246182, Final residual = 0.000228515, No Iterations 1
smoothSolver:  Solving for Uz, Initial residual = 0.00510465, Final residual = 0.000468958, No Iterations 1
DICPCG:  Solving for p, Initial residual = 0.0298204, Final residual = 0.00145269, No Iterations 14
time step continuity errors : sum local = 0.000102662, global = -6.43495e-06, cumulative = 0.123114
smoothSolver:  Solving for omega, Initial residual = 0.00207905, Final residual = 0.000152142, No Iterations 1
smoothSolver:  Solving for k, Initial residual = 0.00448504, Final residual = 0.000409337, No Iterations 1
ExecutionTime = 712.201 s  ClockTime = 712 s

volFieldValue Uavg_propeller write:
    volAverage(propeller) of U = (0.343881 -0.32474 -1.48734)

surfaceFieldValue phi_farField write:
    orientedSum(farField) of phi = 0.233164

surfaceFieldValue phi_top write:
    orientedSum(top) of phi = -0.233473

Time = 1000s

smoothSolver:  Solving for Ux, Initial residual = 0.00347262, Final residual = 0.00033037, No Iterations 1
smoothSolver:  Solving for Uy, Initial residual = 0.0024386, Final residual = 0.000226248, No Iterations 1
smoothSolver:  Solving for Uz, Initial residual = 0.0050583, Final residual = 0.00046456, No Iterations 1
DICPCG:  Solving for p, Initial residual = 0.0294804, Final residual = 0.0014217, No Iterations 14
time step continuity errors : sum local = 0.000100694, global = -4.4244e-06, cumulative = 0.123109
smoothSolver:  Solving for omega, Initial residual = 0.00206422, Final residual = 0.000151209, No Iterations 1
smoothSolver:  Solving for k, Initial residual = 0.00445575, Final residual = 0.000406803, No Iterations 1
ExecutionTime = 713.965 s  ClockTime = 714 s

volFieldValue Uavg_propeller write:
    volAverage(propeller) of U = (0.34356 -0.324908 -1.48732)

surfaceFieldValue phi_farField write:
    orientedSum(farField) of phi = 0.232954

surfaceFieldValue phi_top write:
    orientedSum(top) of phi = -0.233166

End

