/*---------------------------------------------------------------------------*\
  =========                 |
  \\      /  F ield         | OpenFOAM: The Open Source CFD Toolbox
   \\    /   O peration     | Website:  https://openfoam.org
    \\  /    A nd           | Version:  13
     \\/     M anipulation  |
\*---------------------------------------------------------------------------*/
Build  : 13-cde978a97c93
Exec   : foamRun
Date   : Mar 05 2026
Time   : 11:30:49
Host   : "JOO-DESKTOP"
PID    : 32954
I/O    : uncollated
Case   : /home/joo/OpenFOAM/joo-13/run/trackB_propellerIGE_v13/cases/sweep_baselineHover/hR1
nProcs : 1
sigFpe : Enabling floating point exception trapping (FOAM_SIGFPE).
fileModificationChecking : Monitoring run-time modified files using timeStampMaster (fileModificationSkew 10)
allowSystemOperations : Allowing user-supplied system call operations

// * * * * * * * * * * * * * * * * * * * * * * * * * * * * * * * * * * * * * //
Create time

Create mesh for time = 0

Selecting solver incompressibleFluid
Selecting viscosity model constant
Selecting turbulence model type RAS
    Selecting RAS turbulence model kOmegaSST
No MRF models present

Selecting patchDistMethod meshWave
Creating fvModels from "constant/fvModels"

Selecting finite volume model type propellerDisk
    Name: diskSource

SIMPLE: Convergence criteria found
        p: tolerance 0.0001
        U: tolerance 1e-05
        k: tolerance 1e-05
        omega: tolerance 1e-05


SIMPLE: Operating solver in steady-state mode with 1 outer corrector
SIMPLE: Operating solver in SIMPLE mode



Starting time loop

Reading set description:
    line

volFieldValue Uavg_propeller read:
    number of cells = 104
    volume = 0.0126953
    operation = volAverage

surfaceFieldValue phi_farField read:
    number of faces = 24576
    area = 48
    operation = orientedSum

surfaceFieldValue phi_top read:
    number of faces = 4096
    area = 16
    operation = orientedSum

volFieldValue Uavg_propeller write:
    volAverage(propeller) of U = (0 0 -0.01)

surfaceFieldValue phi_farField write:
    orientedSum(farField) of phi = 0

surfaceFieldValue phi_top write:
    orientedSum(top) of phi = 0

Time = 1s

--> FOAM Warning : 
    From function void Foam::Function1s::Table<Type>::checkX(Foam::scalar) const [with Type = Foam::Vector2D<double>; Foam::scalar = double]
    in file lnInclude/Table.C at line 107
    "value (-97.489) underflow"

smoothSolver:  Solving for Ux, Initial residual = 1, Final residual = 0.0294851, No Iterations 1
smoothSolver:  Solving for Uy, Initial residual = 1, Final residual = 0.0294851, No Iterations 1
smoothSolver:  Solving for Uz, Initial residual = 1, Final residual = 0.0300262, No Iterations 1
DICPCG:  Solving for p, Initial residual = 1, Final residual = 0.049961, No Iterations 18
time step continuity errors : sum local = 0.0400192, global = -0.00165052, cumulative = -0.00165052
smoothSolver:  Solving for omega, Initial residual = 0.128435, Final residual = 0.0071759, No Iterations 1
smoothSolver:  Solving for k, Initial residual = 1, Final residual = 0.0342773, No Iterations 1
ExecutionTime = 4.05816 s  ClockTime = 4 s

volFieldValue Uavg_propeller write:
    volAverage(propeller) of U = (-0.00141306 -0.00116224 -82.8838)

surfaceFieldValue phi_farField write:
    orientedSum(farField) of phi = 0.080775

surfaceFieldValue phi_top write:
    orientedSum(top) of phi = -0.16

Time = 2s

--> FOAM Warning : 
    From function void Foam::Function1s::Table<Type>::checkX(Foam::scalar) const [with Type = Foam::Vector2D<double>; Foam::scalar = double]
    in file lnInclude/Table.C at line 107
    "value (27.6279) overflow"

--> FOAM Warning : 
    From function void Foam::Function1s::Table<Type>::checkX(Foam::scalar) const [with Type = Foam::Vector2D<double>; Foam::scalar = double]
    in file lnInclude/Table.C at line 107
    "value (27.6267) overflow"

smoothSolver:  Solving for Ux, Initial residual = 0.252305, Final residual = 0.0133024, No Iterations 1
smoothSolver:  Solving for Uy, Initial residual = 0.252307, Final residual = 0.0129865, No Iterations 1
smoothSolver:  Solving for Uz, Initial residual = 0.262404, Final residual = 0.0140976, No Iterations 1
DICPCG:  Solving for p, Initial residual = 0.981032, Final residual = 0.0458864, No Iterations 35
time step continuity errors : sum local = 0.0312546, global = 0.00323988, cumulative = 0.00158936
smoothSolver:  Solving for omega, Initial residual = 0.0485224, Final residual = 0.00289345, No Iterations 1
smoothSolver:  Solving for k, Initial residual = 0.0655868, Final residual = 0.00326863, No Iterations 1
ExecutionTime = 5.01933 s  ClockTime = 5 s

volFieldValue Uavg_propeller write:
    volAverage(propeller) of U = (0.03256 -0.0025067 -56.9331)

surfaceFieldValue phi_farField write:
    orientedSum(farField) of phi = 0.540533

surfaceFieldValue phi_top write:
    orientedSum(top) of phi = -0.385019

Time = 3s

--> FOAM Warning : 
    From function void Foam::Function1s::Table<Type>::checkX(Foam::scalar) const [with Type = Foam::Vector2D<double>; Foam::scalar = double]
    in file lnInclude/Table.C at line 107
    "value (18.9777) overflow"

--> FOAM Warning : 
    From function void Foam::Function1s::Table<Type>::checkX(Foam::scalar) const [with Type = Foam::Vector2D<double>; Foam::scalar = double]
    in file lnInclude/Table.C at line 107
    "value (18.9758) overflow"

smoothSolver:  Solving for Ux, Initial residual = 0.220951, Final residual = 0.0112271, No Iterations 1
smoothSolver:  Solving for Uy, Initial residual = 0.22082, Final residual = 0.0107036, No Iterations 1
smoothSolver:  Solving for Uz, Initial residual = 0.230811, Final residual = 0.0106993, No Iterations 1
DICPCG:  Solving for p, Initial residual = 0.0417826, Final residual = 0.00187184, No Iterations 26
time step continuity errors : sum local = 0.0223319, global = 0.00251816, cumulative = 0.00410751
smoothSolver:  Solving for omega, Initial residual = 0.0820202, Final residual = 0.00482873, No Iterations 1
smoothSolver:  Solving for k, Initial residual = 0.0725723, Final residual = 0.00366958, No Iterations 1
ExecutionTime = 5.93228 s  ClockTime = 6 s

volFieldValue Uavg_propeller write:
    volAverage(propeller) of U = (0.0427109 -0.021602 -33.8454)

surfaceFieldValue phi_farField write:
    orientedSum(farField) of phi = 0.382787

surfaceFieldValue phi_top write:
    orientedSum(top) of phi = -0.261915

Time = 4s

--> FOAM Warning : 
    From function void Foam::Function1s::Table<Type>::checkX(Foam::scalar) const [with Type = Foam::Vector2D<double>; Foam::scalar = double]
    in file lnInclude/Table.C at line 107
    "value (11.2818) overflow"

--> FOAM Warning : 
    From function void Foam::Function1s::Table<Type>::checkX(Foam::scalar) const [with Type = Foam::Vector2D<double>; Foam::scalar = double]
    in file lnInclude/Table.C at line 107
    "value (11.2787) overflow"

smoothSolver:  Solving for Ux, Initial residual = 0.214772, Final residual = 0.0121487, No Iterations 1
smoothSolver:  Solving for Uy, Initial residual = 0.214511, Final residual = 0.0117707, No Iterations 1
smoothSolver:  Solving for Uz, Initial residual = 0.218039, Final residual = 0.0104528, No Iterations 1
DICPCG:  Solving for p, Initial residual = 0.0124667, Final residual = 0.000610389, No Iterations 20
time step continuity errors : sum local = 0.0209058, global = 0.00933537, cumulative = 0.0134429
smoothSolver:  Solving for omega, Initial residual = 0.0785787, Final residual = 0.00457757, No Iterations 1
smoothSolver:  Solving for k, Initial residual = 0.0694031, Final residual = 0.00360909, No Iterations 1
ExecutionTime = 6.76018 s  ClockTime = 7 s

volFieldValue Uavg_propeller write:
    volAverage(propeller) of U = (0.0475442 -0.0389383 -18.8733)

surfaceFieldValue phi_farField write:
    orientedSum(farField) of phi = 0.802367

surfaceFieldValue phi_top write:
    orientedSum(top) of phi = -0.354269

Time = 5s

--> FOAM Warning : 
    From function void Foam::Function1s::Table<Type>::checkX(Foam::scalar) const [with Type = Foam::Vector2D<double>; Foam::scalar = double]
    in file lnInclude/Table.C at line 107
    "value (6.29111) overflow"

--> FOAM Warning : 
    From function void Foam::Function1s::Table<Type>::checkX(Foam::scalar) const [with Type = Foam::Vector2D<double>; Foam::scalar = double]
    in file lnInclude/Table.C at line 107
    "value (6.28553) overflow"

smoothSolver:  Solving for Ux, Initial residual = 0.158497, Final residual = 0.00911943, No Iterations 1
smoothSolver:  Solving for Uy, Initial residual = 0.15829, Final residual = 0.00882672, No Iterations 1
smoothSolver:  Solving for Uz, Initial residual = 0.207535, Final residual = 0.0103686, No Iterations 1
DICPCG:  Solving for p, Initial residual = 0.026529, Final residual = 0.00125088, No Iterations 28
time step continuity errors : sum local = 0.0288142, global = 0.0107376, cumulative = 0.0241805
smoothSolver:  Solving for omega, Initial residual = 0.0645362, Final residual = 0.00385522, No Iterations 1
smoothSolver:  Solving for k, Initial residual = 0.0727113, Final residual = 0.00381872, No Iterations 1
ExecutionTime = 7.68477 s  ClockTime = 8 s

volFieldValue Uavg_propeller write:
    volAverage(propeller) of U = (0.090234 -0.0692387 -12.7785)

surfaceFieldValue phi_farField write:
    orientedSum(farField) of phi = 0.959948

surfaceFieldValue phi_top write:
    orientedSum(top) of phi = -0.444543

Time = 6s

--> FOAM Warning : 
    From function void Foam::Function1s::Table<Type>::checkX(Foam::scalar) const [with Type = Foam::Vector2D<double>; Foam::scalar = double]
    in file lnInclude/Table.C at line 107
    "value (4.25949) overflow"

--> FOAM Warning : 
    From function void Foam::Function1s::Table<Type>::checkX(Foam::scalar) const [with Type = Foam::Vector2D<double>; Foam::scalar = double]
    in file lnInclude/Table.C at line 107
    "value (4.25124) overflow"

smoothSolver:  Solving for Ux, Initial residual = 0.105567, Final residual = 0.00614845, No Iterations 1
smoothSolver:  Solving for Uy, Initial residual = 0.105463, Final residual = 0.00593227, No Iterations 1
smoothSolver:  Solving for Uz, Initial residual = 0.170152, Final residual = 0.0094226, No Iterations 1
DICPCG:  Solving for p, Initial residual = 0.212052, Final residual = 0.00915168, No Iterations 29
time step continuity errors : sum local = 0.031251, global = 0.00934632, cumulative = 0.0335268
smoothSolver:  Solving for omega, Initial residual = 0.0500764, Final residual = 0.00306683, No Iterations 1
smoothSolver:  Solving for k, Initial residual = 0.0724606, Final residual = 0.00381223, No Iterations 1
ExecutionTime = 8.62714 s  ClockTime = 9 s

volFieldValue Uavg_propeller write:
    volAverage(propeller) of U = (0.158291 -0.0912925 -12.89)

surfaceFieldValue phi_farField write:
    orientedSum(farField) of phi = 0.935658

surfaceFieldValue phi_top write:
    orientedSum(top) of phi = -0.487034

Time = 7s

--> FOAM Warning : 
    From function void Foam::Function1s::Table<Type>::checkX(Foam::scalar) const [with Type = Foam::Vector2D<double>; Foam::scalar = double]
    in file lnInclude/Table.C at line 107
    "value (4.29667) overflow"

--> FOAM Warning : 
    From function void Foam::Function1s::Table<Type>::checkX(Foam::scalar) const [with Type = Foam::Vector2D<double>; Foam::scalar = double]
    in file lnInclude/Table.C at line 107
    "value (4.28849) overflow"

smoothSolver:  Solving for Ux, Initial residual = 0.0728817, Final residual = 0.0042527, No Iterations 1
smoothSolver:  Solving for Uy, Initial residual = 0.0729271, Final residual = 0.00413238, No Iterations 1
smoothSolver:  Solving for Uz, Initial residual = 0.123079, Final residual = 0.00728792, No Iterations 1
DICPCG:  Solving for p, Initial residual = 0.0199349, Final residual = 0.000929063, No Iterations 29
time step continuity errors : sum local = 0.03158, global = 0.00914769, cumulative = 0.0426745
smoothSolver:  Solving for omega, Initial residual = 0.0421859, Final residual = 0.00255682, No Iterations 1
smoothSolver:  Solving for k, Initial residual = 0.0723534, Final residual = 0.0038099, No Iterations 1
ExecutionTime = 9.58515 s  ClockTime = 9 s

volFieldValue Uavg_propeller write:
    volAverage(propeller) of U = (0.167484 -0.0490901 -15.0207)

surfaceFieldValue phi_farField write:
    orientedSum(farField) of phi = 0.960797

surfaceFieldValue phi_top write:
    orientedSum(top) of phi = -0.521708

Time = 8s

--> FOAM Warning : 
    From function void Foam::Function1s::Table<Type>::checkX(Foam::scalar) const [with Type = Foam::Vector2D<double>; Foam::scalar = double]
    in file lnInclude/Table.C at line 107
    "value (5.00689) overflow"

--> FOAM Warning : 
    From function void Foam::Function1s::Table<Type>::checkX(Foam::scalar) const [with Type = Foam::Vector2D<double>; Foam::scalar = double]
    in file lnInclude/Table.C at line 107
    "value (4.99988) overflow"

smoothSolver:  Solving for Ux, Initial residual = 0.0773955, Final residual = 0.00429206, No Iterations 1
smoothSolver:  Solving for Uy, Initial residual = 0.0776441, Final residual = 0.00448431, No Iterations 1
smoothSolver:  Solving for Uz, Initial residual = 0.111945, Final residual = 0.00580969, No Iterations 1
DICPCG:  Solving for p, Initial residual = 0.00964272, Final residual = 0.000460353, No Iterations 26
time step continuity errors : sum local = 0.026965, global = 0.00997891, cumulative = 0.0526534
smoothSolver:  Solving for omega, Initial residual = 0.036617, Final residual = 0.00220781, No Iterations 1
smoothSolver:  Solving for k, Initial residual = 0.0738574, Final residual = 0.00390241, No Iterations 1
ExecutionTime = 10.4318 s  ClockTime = 10 s

volFieldValue Uavg_propeller write:
    volAverage(propeller) of U = (0.176675 -0.00287313 -15.4839)

surfaceFieldValue phi_farField write:
    orientedSum(farField) of phi = 1.02311

surfaceFieldValue phi_top write:
    orientedSum(top) of phi = -0.544125

Time = 9s

--> FOAM Warning : 
    From function void Foam::Function1s::Table<Type>::checkX(Foam::scalar) const [with Type = Foam::Vector2D<double>; Foam::scalar = double]
    in file lnInclude/Table.C at line 107
    "value (5.16129) overflow"

--> FOAM Warning : 
    From function void Foam::Function1s::Table<Type>::checkX(Foam::scalar) const [with Type = Foam::Vector2D<double>; Foam::scalar = double]
    in file lnInclude/Table.C at line 107
    "value (5.15449) overflow"

smoothSolver:  Solving for Ux, Initial residual = 0.0898236, Final residual = 0.00487154, No Iterations 1
smoothSolver:  Solving for Uy, Initial residual = 0.0901656, Final residual = 0.0053584, No Iterations 1
smoothSolver:  Solving for Uz, Initial residual = 0.141635, Final residual = 0.00737169, No Iterations 1
DICPCG:  Solving for p, Initial residual = 0.00815286, Final residual = 0.000394617, No Iterations 16
time step continuity errors : sum local = 0.0235331, global = 0.0140964, cumulative = 0.0667498
smoothSolver:  Solving for omega, Initial residual = 0.03363, Final residual = 0.00201474, No Iterations 1
smoothSolver:  Solving for k, Initial residual = 0.0766199, Final residual = 0.00404972, No Iterations 1
ExecutionTime = 11.2804 s  ClockTime = 11 s

volFieldValue Uavg_propeller write:
    volAverage(propeller) of U = (0.163458 0.0355339 -13.8201)

surfaceFieldValue phi_farField write:
    orientedSum(farField) of phi = 1.22032

surfaceFieldValue phi_top write:
    orientedSum(top) of phi = -0.543693

Time = 10s

--> FOAM Warning : 
    From function void Foam::Function1s::Table<Type>::checkX(Foam::scalar) const [with Type = Foam::Vector2D<double>; Foam::scalar = double]
    in file lnInclude/Table.C at line 107
    "value (4.60671) overflow"

--> FOAM Warning : 
    From function void Foam::Function1s::Table<Type>::checkX(Foam::scalar) const [with Type = Foam::Vector2D<double>; Foam::scalar = double]
    in file lnInclude/Table.C at line 107
    "value (4.59908) overflow"

smoothSolver:  Solving for Ux, Initial residual = 0.0920811, Final residual = 0.00493045, No Iterations 1
smoothSolver:  Solving for Uy, Initial residual = 0.0924344, Final residual = 0.00546238, No Iterations 1
smoothSolver:  Solving for Uz, Initial residual = 0.140715, Final residual = 0.00762905, No Iterations 1
DICPCG:  Solving for p, Initial residual = 0.00891947, Final residual = 0.000390316, No Iterations 21
time step continuity errors : sum local = 0.0215093, global = 0.00512857, cumulative = 0.0718784
smoothSolver:  Solving for omega, Initial residual = 0.0320642, Final residual = 0.00189315, No Iterations 1
smoothSolver:  Solving for k, Initial residual = 0.080712, Final residual = 0.00427998, No Iterations 1
ExecutionTime = 12.1691 s  ClockTime = 12 s

volFieldValue Uavg_propeller write:
    volAverage(propeller) of U = (0.128966 0.0641854 -10.7908)

surfaceFieldValue phi_farField write:
    orientedSum(farField) of phi = 0.823984

surfaceFieldValue phi_top write:
    orientedSum(top) of phi = -0.577813

Time = 11s

--> FOAM Warning : 
    From function void Foam::Function1s::Table<Type>::checkX(Foam::scalar) const [with Type = Foam::Vector2D<double>; Foam::scalar = double]
    in file lnInclude/Table.C at line 107
    "value (3.59693) overflow"

--> FOAM Warning : 
    From function void Foam::Function1s::Table<Type>::checkX(Foam::scalar) const [with Type = Foam::Vector2D<double>; Foam::scalar = double]
    in file lnInclude/Table.C at line 107
    "value (3.58717) overflow"

smoothSolver:  Solving for Ux, Initial residual = 0.0837783, Final residual = 0.00447498, No Iterations 1
smoothSolver:  Solving for Uy, Initial residual = 0.0841955, Final residual = 0.0048829, No Iterations 1
smoothSolver:  Solving for Uz, Initial residual = 0.109005, Final residual = 0.00605936, No Iterations 1
DICPCG:  Solving for p, Initial residual = 0.0125632, Final residual = 0.000574861, No Iterations 23
time step continuity errors : sum local = 0.0223471, global = -0.00119044, cumulative = 0.0706879
smoothSolver:  Solving for omega, Initial residual = 0.0312417, Final residual = 0.00180182, No Iterations 1
smoothSolver:  Solving for k, Initial residual = 0.0830685, Final residual = 0.0044106, No Iterations 1
ExecutionTime = 13.0513 s  ClockTime = 13 s

volFieldValue Uavg_propeller write:
    volAverage(propeller) of U = (0.0784587 0.074415 -7.38838)

surfaceFieldValue phi_farField write:
    orientedSum(farField) of phi = 0.566411

surfaceFieldValue phi_top write:
    orientedSum(top) of phi = -0.623552

Time = 12s

--> FOAM Warning : 
    From function void Foam::Function1s::Table<Type>::checkX(Foam::scalar) const [with Type = Foam::Vector2D<double>; Foam::scalar = double]
    in file lnInclude/Table.C at line 107
    "value (2.46279) overflow"

--> FOAM Warning : 
    From function void Foam::Function1s::Table<Type>::checkX(Foam::scalar) const [with Type = Foam::Vector2D<double>; Foam::scalar = double]
    in file lnInclude/Table.C at line 107
    "value (2.44853) overflow"

smoothSolver:  Solving for Ux, Initial residual = 0.074794, Final residual = 0.00405466, No Iterations 1
smoothSolver:  Solving for Uy, Initial residual = 0.0752074, Final residual = 0.00423612, No Iterations 1
smoothSolver:  Solving for Uz, Initial residual = 0.0741858, Final residual = 0.00392685, No Iterations 1
DICPCG:  Solving for p, Initial residual = 0.0211978, Final residual = 0.00101102, No Iterations 21
time step continuity errors : sum local = 0.0215624, global = -0.00132944, cumulative = 0.0693585
smoothSolver:  Solving for omega, Initial residual = 0.0304101, Final residual = 0.00172961, No Iterations 1
smoothSolver:  Solving for k, Initial residual = 0.0828584, Final residual = 0.00439669, No Iterations 1
ExecutionTime = 13.932 s  ClockTime = 14 s

volFieldValue Uavg_propeller write:
    volAverage(propeller) of U = (-0.00484927 0.058289 -4.4562)

surfaceFieldValue phi_farField write:
    orientedSum(farField) of phi = 0.60933

surfaceFieldValue phi_top write:
    orientedSum(top) of phi = -0.673143

Time = 13s

--> FOAM Warning : 
    From function void Foam::Function1s::Table<Type>::checkX(Foam::scalar) const [with Type = Foam::Vector2D<double>; Foam::scalar = double]
    in file lnInclude/Table.C at line 107
    "value (1.4854) overflow"

--> FOAM Warning : 
    From function void Foam::Function1s::Table<Type>::checkX(Foam::scalar) const [with Type = Foam::Vector2D<double>; Foam::scalar = double]
    in file lnInclude/Table.C at line 107
    "value (1.46176) overflow"

smoothSolver:  Solving for Ux, Initial residual = 0.0689746, Final residual = 0.00382566, No Iterations 1
smoothSolver:  Solving for Uy, Initial residual = 0.0692507, Final residual = 0.00382076, No Iterations 1
smoothSolver:  Solving for Uz, Initial residual = 0.0840556, Final residual = 0.00466448, No Iterations 1
DICPCG:  Solving for p, Initial residual = 0.0439253, Final residual = 0.0021954, No Iterations 15
time step continuity errors : sum local = 0.0206518, global = 0.00252572, cumulative = 0.0718842
smoothSolver:  Solving for omega, Initial residual = 0.0297468, Final residual = 0.00167749, No Iterations 1
smoothSolver:  Solving for k, Initial residual = 0.0814313, Final residual = 0.00431766, No Iterations 1
ExecutionTime = 14.7375 s  ClockTime = 15 s

volFieldValue Uavg_propeller write:
    volAverage(propeller) of U = (-0.0707911 0.0777748 -2.60041)

surfaceFieldValue phi_farField write:
    orientedSum(farField) of phi = 0.824845

surfaceFieldValue phi_top write:
    orientedSum(top) of phi = -0.70361

Time = 14s

--> FOAM Warning : 
    From function void Foam::Function1s::Table<Type>::checkX(Foam::scalar) const [with Type = Foam::Vector2D<double>; Foam::scalar = double]
    in file lnInclude/Table.C at line 107
    "value (0.866805) overflow"

--> FOAM Warning : 
    From function void Foam::Function1s::Table<Type>::checkX(Foam::scalar) const [with Type = Foam::Vector2D<double>; Foam::scalar = double]
    in file lnInclude/Table.C at line 107
    "value (0.826296) overflow"

smoothSolver:  Solving for Ux, Initial residual = 0.066109, Final residual = 0.0036849, No Iterations 1
smoothSolver:  Solving for Uy, Initial residual = 0.0665323, Final residual = 0.00365587, No Iterations 1
smoothSolver:  Solving for Uz, Initial residual = 0.109217, Final residual = 0.00665834, No Iterations 1
DICPCG:  Solving for p, Initial residual = 0.0952075, Final residual = 0.00450117, No Iterations 15
time step continuity errors : sum local = 0.019167, global = 0.001817, cumulative = 0.0737012
smoothSolver:  Solving for omega, Initial residual = 0.0292191, Final residual = 0.00164201, No Iterations 1
smoothSolver:  Solving for k, Initial residual = 0.0805062, Final residual = 0.00425027, No Iterations 1
ExecutionTime = 15.5647 s  ClockTime = 15 s

volFieldValue Uavg_propeller write:
    volAverage(propeller) of U = (0.0412757 -0.160468 -1.95177)

surfaceFieldValue phi_farField write:
    orientedSum(farField) of phi = 0.840498

surfaceFieldValue phi_top write:
    orientedSum(top) of phi = -0.753282

Time = 15s

smoothSolver:  Solving for Ux, Initial residual = 0.0644493, Final residual = 0.0035543, No Iterations 1
smoothSolver:  Solving for Uy, Initial residual = 0.0647229, Final residual = 0.00351688, No Iterations 1
smoothSolver:  Solving for Uz, Initial residual = 0.125914, Final residual = 0.00791511, No Iterations 1
DICPCG:  Solving for p, Initial residual = 0.110031, Final residual = 0.00529467, No Iterations 20
time step continuity errors : sum local = 0.0222649, global = 0.0040442, cumulative = 0.0777454
smoothSolver:  Solving for omega, Initial residual = 0.0292281, Final residual = 0.00162891, No Iterations 1
smoothSolver:  Solving for k, Initial residual = 0.0791373, Final residual = 0.00415693, No Iterations 1
ExecutionTime = 16.4671 s  ClockTime = 16 s

volFieldValue Uavg_propeller write:
    volAverage(propeller) of U = (0.162152 -0.281044 -2.06437)

surfaceFieldValue phi_farField write:
    orientedSum(farField) of phi = 0.988506

surfaceFieldValue phi_top write:
    orientedSum(top) of phi = -0.794384

Time = 16s

smoothSolver:  Solving for Ux, Initial residual = 0.0628987, Final residual = 0.00346881, No Iterations 1
smoothSolver:  Solving for Uy, Initial residual = 0.0629445, Final residual = 0.00344018, No Iterations 1
smoothSolver:  Solving for Uz, Initial residual = 0.115945, Final residual = 0.00729457, No Iterations 1
DICPCG:  Solving for p, Initial residual = 0.05725, Final residual = 0.00275511, No Iterations 22
time step continuity errors : sum local = 0.0234705, global = 0.00772629, cumulative = 0.0854717
smoothSolver:  Solving for omega, Initial residual = 0.0296202, Final residual = 0.00162437, No Iterations 1
smoothSolver:  Solving for k, Initial residual = 0.0778275, Final residual = 0.00407416, No Iterations 1
ExecutionTime = 17.3157 s  ClockTime = 17 s

volFieldValue Uavg_propeller write:
    volAverage(propeller) of U = (0.135168 -0.258376 -2.17958)

surfaceFieldValue phi_farField write:
    orientedSum(farField) of phi = 1.16287

surfaceFieldValue phi_top write:
    orientedSum(top) of phi = -0.79201

Time = 17s

smoothSolver:  Solving for Ux, Initial residual = 0.0633348, Final residual = 0.00348598, No Iterations 1
smoothSolver:  Solving for Uy, Initial residual = 0.0632512, Final residual = 0.00349268, No Iterations 1
smoothSolver:  Solving for Uz, Initial residual = 0.0934555, Final residual = 0.0056773, No Iterations 1
DICPCG:  Solving for p, Initial residual = 0.0291859, Final residual = 0.00138213, No Iterations 23
time step continuity errors : sum local = 0.0219654, global = 0.00783144, cumulative = 0.0933032
smoothSolver:  Solving for omega, Initial residual = 0.0298033, Final residual = 0.00161307, No Iterations 1
smoothSolver:  Solving for k, Initial residual = 0.0766011, Final residual = 0.00399471, No Iterations 1
ExecutionTime = 18.1405 s  ClockTime = 18 s

volFieldValue Uavg_propeller write:
    volAverage(propeller) of U = (0.183065 -0.231321 -1.40222)

surfaceFieldValue phi_farField write:
    orientedSum(farField) of phi = 1.16445

surfaceFieldValue phi_top write:
    orientedSum(top) of phi = -0.788541

Time = 18s

smoothSolver:  Solving for Ux, Initial residual = 0.0647941, Final residual = 0.0035799, No Iterations 1
smoothSolver:  Solving for Uy, Initial residual = 0.0650948, Final residual = 0.00358397, No Iterations 1
smoothSolver:  Solving for Uz, Initial residual = 0.0759482, Final residual = 0.00416416, No Iterations 1
DICPCG:  Solving for p, Initial residual = 0.0176541, Final residual = 0.000871261, No Iterations 21
time step continuity errors : sum local = 0.0206121, global = 0.00810025, cumulative = 0.101403
smoothSolver:  Solving for omega, Initial residual = 0.0298593, Final residual = 0.00159867, No Iterations 1
smoothSolver:  Solving for k, Initial residual = 0.0754569, Final residual = 0.00391646, No Iterations 1
ExecutionTime = 19.0805 s  ClockTime = 19 s

volFieldValue Uavg_propeller write:
    volAverage(propeller) of U = (0.114874 -0.0759642 -0.477138)

surfaceFieldValue phi_farField write:
    orientedSum(farField) of phi = 1.18276

surfaceFieldValue phi_top write:
    orientedSum(top) of phi = -0.793951

Time = 19s

--> FOAM Warning : 
    From function void Foam::Function1s::Table<Type>::checkX(Foam::scalar) const [with Type = Foam::Vector2D<double>; Foam::scalar = double]
    in file lnInclude/Table.C at line 107
    "value (-1.76884) underflow"

smoothSolver:  Solving for Ux, Initial residual = 0.0668165, Final residual = 0.00366441, No Iterations 1
smoothSolver:  Solving for Uy, Initial residual = 0.0670757, Final residual = 0.00368543, No Iterations 1
smoothSolver:  Solving for Uz, Initial residual = 0.0763556, Final residual = 0.00440019, No Iterations 1
DICPCG:  Solving for p, Initial residual = 0.0138409, Final residual = 0.000638598, No Iterations 19
time step continuity errors : sum local = 0.0181002, global = 0.00929566, cumulative = 0.110699
smoothSolver:  Solving for omega, Initial residual = 0.0299384, Final residual = 0.00159025, No Iterations 1
smoothSolver:  Solving for k, Initial residual = 0.0746556, Final residual = 0.00385758, No Iterations 1
ExecutionTime = 19.9335 s  ClockTime = 20 s

volFieldValue Uavg_propeller write:
    volAverage(propeller) of U = (0.188747 0.00861248 0.527043)

surfaceFieldValue phi_farField write:
    orientedSum(farField) of phi = 1.26359

surfaceFieldValue phi_top write:
    orientedSum(top) of phi = -0.817393

Time = 20s

--> FOAM Warning : 
    From function void Foam::Function1s::Table<Type>::checkX(Foam::scalar) const [with Type = Foam::Vector2D<double>; Foam::scalar = double]
    in file lnInclude/Table.C at line 107
    "value (-1.53895) underflow"

smoothSolver:  Solving for Ux, Initial residual = 0.0671579, Final residual = 0.00365379, No Iterations 1
smoothSolver:  Solving for Uy, Initial residual = 0.0673317, Final residual = 0.00367851, No Iterations 1
smoothSolver:  Solving for Uz, Initial residual = 0.0764436, Final residual = 0.00448624, No Iterations 1
DICPCG:  Solving for p, Initial residual = 0.0145823, Final residual = 0.000691882, No Iterations 19
time step continuity errors : sum local = 0.0197922, global = 0.00555486, cumulative = 0.116254
smoothSolver:  Solving for omega, Initial residual = 0.0299428, Final residual = 0.00157303, No Iterations 1
smoothSolver:  Solving for k, Initial residual = 0.0739519, Final residual = 0.00381108, No Iterations 1
ExecutionTime = 20.7567 s  ClockTime = 21 s

volFieldValue Uavg_propeller write:
    volAverage(propeller) of U = (0.181507 0.0667942 1.13022)

surfaceFieldValue phi_farField write:
    orientedSum(farField) of phi = 1.12396

surfaceFieldValue phi_top write:
    orientedSum(top) of phi = -0.857325

Time = 21s

smoothSolver:  Solving for Ux, Initial residual = 0.0657797, Final residual = 0.00354675, No Iterations 1
smoothSolver:  Solving for Uy, Initial residual = 0.0659403, Final residual = 0.00356026, No Iterations 1
smoothSolver:  Solving for Uz, Initial residual = 0.0753438, Final residual = 0.00436437, No Iterations 1
DICPCG:  Solving for p, Initial residual = 0.0170053, Final residual = 0.000788468, No Iterations 20
time step continuity errors : sum local = 0.0210389, global = -0.00153035, cumulative = 0.114724
smoothSolver:  Solving for omega, Initial residual = 0.0297605, Final residual = 0.00154178, No Iterations 1
smoothSolver:  Solving for k, Initial residual = 0.0735558, Final residual = 0.00378134, No Iterations 1
ExecutionTime = 21.6251 s  ClockTime = 22 s

volFieldValue Uavg_propeller write:
    volAverage(propeller) of U = (0.204329 0.0620028 1.40632)

surfaceFieldValue phi_farField write:
    orientedSum(farField) of phi = 0.848829

surfaceFieldValue phi_top write:
    orientedSum(top) of phi = -0.922286

Time = 22s

smoothSolver:  Solving for Ux, Initial residual = 0.0638823, Final residual = 0.00341988, No Iterations 1
smoothSolver:  Solving for Uy, Initial residual = 0.0639711, Final residual = 0.0034155, No Iterations 1
smoothSolver:  Solving for Uz, Initial residual = 0.0766273, Final residual = 0.00447417, No Iterations 1
DICPCG:  Solving for p, Initial residual = 0.0203084, Final residual = 0.000991334, No Iterations 20
time step continuity errors : sum local = 0.0226712, global = -0.0071958, cumulative = 0.107528
smoothSolver:  Solving for omega, Initial residual = 0.029552, Final residual = 0.00150653, No Iterations 1
smoothSolver:  Solving for k, Initial residual = 0.0734102, Final residual = 0.00376357, No Iterations 1
ExecutionTime = 22.4549 s  ClockTime = 22 s

volFieldValue Uavg_propeller write:
    volAverage(propeller) of U = (0.228017 0.0185386 1.46634)

surfaceFieldValue phi_farField write:
    orientedSum(farField) of phi = 0.643678

surfaceFieldValue phi_top write:
    orientedSum(top) of phi = -0.989076

Time = 23s

smoothSolver:  Solving for Ux, Initial residual = 0.0628123, Final residual = 0.00333994, No Iterations 1
smoothSolver:  Solving for Uy, Initial residual = 0.0628453, Final residual = 0.00332543, No Iterations 1
smoothSolver:  Solving for Uz, Initial residual = 0.0788783, Final residual = 0.00469674, No Iterations 1
DICPCG:  Solving for p, Initial residual = 0.0245302, Final residual = 0.00121737, No Iterations 23
time step continuity errors : sum local = 0.0228173, global = -0.0102352, cumulative = 0.0972926
smoothSolver:  Solving for omega, Initial residual = 0.0292479, Final residual = 0.00147832, No Iterations 1
smoothSolver:  Solving for k, Initial residual = 0.0734107, Final residual = 0.00376047, No Iterations 1
ExecutionTime = 23.3237 s  ClockTime = 23 s

volFieldValue Uavg_propeller write:
    volAverage(propeller) of U = (0.205287 -0.0161151 1.61829)

surfaceFieldValue phi_farField write:
    orientedSum(farField) of phi = 0.539248

surfaceFieldValue phi_top write:
    orientedSum(top) of phi = -1.03054

Time = 24s

smoothSolver:  Solving for Ux, Initial residual = 0.0622652, Final residual = 0.00330623, No Iterations 1
smoothSolver:  Solving for Uy, Initial residual = 0.0623049, Final residual = 0.00327924, No Iterations 1
smoothSolver:  Solving for Uz, Initial residual = 0.0801686, Final residual = 0.00481876, No Iterations 1
DICPCG:  Solving for p, Initial residual = 0.0295602, Final residual = 0.00146817, No Iterations 20
time step continuity errors : sum local = 0.0224234, global = -0.0100303, cumulative = 0.0872623
smoothSolver:  Solving for omega, Initial residual = 0.0288164, Final residual = 0.0014438, No Iterations 1
smoothSolver:  Solving for k, Initial residual = 0.073519, Final residual = 0.00376193, No Iterations 1
ExecutionTime = 24.1542 s  ClockTime = 24 s

volFieldValue Uavg_propeller write:
    volAverage(propeller) of U = (0.194502 -0.0534656 2.072)

surfaceFieldValue phi_farField write:
    orientedSum(farField) of phi = 0.540277

surfaceFieldValue phi_top write:
    orientedSum(top) of phi = -1.02173

Time = 25s

smoothSolver:  Solving for Ux, Initial residual = 0.0614017, Final residual = 0.00326795, No Iterations 1
smoothSolver:  Solving for Uy, Initial residual = 0.0614536, Final residual = 0.00324075, No Iterations 1
smoothSolver:  Solving for Uz, Initial residual = 0.078282, Final residual = 0.00466523, No Iterations 1
DICPCG:  Solving for p, Initial residual = 0.0298777, Final residual = 0.00149188, No Iterations 21
time step continuity errors : sum local = 0.0226397, global = -0.00772052, cumulative = 0.0795418
smoothSolver:  Solving for omega, Initial residual = 0.0283623, Final residual = 0.00141576, No Iterations 1
smoothSolver:  Solving for k, Initial residual = 0.0737245, Final residual = 0.00377187, No Iterations 1
ExecutionTime = 24.9985 s  ClockTime = 25 s

volFieldValue Uavg_propeller write:
    volAverage(propeller) of U = (0.188683 -0.0664235 2.68859)

surfaceFieldValue phi_farField write:
    orientedSum(farField) of phi = 0.59167

surfaceFieldValue phi_top write:
    orientedSum(top) of phi = -0.962255

Time = 26s

--> FOAM Warning : 
    From function void Foam::Function1s::Table<Type>::checkX(Foam::scalar) const [with Type = Foam::Vector2D<double>; Foam::scalar = double]
    in file lnInclude/Table.C at line 107
    "value (0.896198) overflow"

--> FOAM Warning : 
    From function void Foam::Function1s::Table<Type>::checkX(Foam::scalar) const [with Type = Foam::Vector2D<double>; Foam::scalar = double]
    in file lnInclude/Table.C at line 107
    "value (0.857017) overflow"

smoothSolver:  Solving for Ux, Initial residual = 0.0604144, Final residual = 0.00323227, No Iterations 1
smoothSolver:  Solving for Uy, Initial residual = 0.0604614, Final residual = 0.00320304, No Iterations 1
smoothSolver:  Solving for Uz, Initial residual = 0.0743911, Final residual = 0.00434754, No Iterations 1
DICPCG:  Solving for p, Initial residual = 0.02831, Final residual = 0.00141037, No Iterations 21
time step continuity errors : sum local = 0.0229812, global = -0.00402846, cumulative = 0.0755133
smoothSolver:  Solving for omega, Initial residual = 0.027962, Final residual = 0.00138583, No Iterations 1
smoothSolver:  Solving for k, Initial residual = 0.0745101, Final residual = 0.00379314, No Iterations 1
ExecutionTime = 25.8089 s  ClockTime = 26 s

volFieldValue Uavg_propeller write:
    volAverage(propeller) of U = (0.173485 -0.063297 3.12322)

surfaceFieldValue phi_farField write:
    orientedSum(farField) of phi = 0.658859

surfaceFieldValue phi_top write:
    orientedSum(top) of phi = -0.852225

Time = 27s

--> FOAM Warning : 
    From function void Foam::Function1s::Table<Type>::checkX(Foam::scalar) const [with Type = Foam::Vector2D<double>; Foam::scalar = double]
    in file lnInclude/Table.C at line 107
    "value (1.04107) overflow"

--> FOAM Warning : 
    From function void Foam::Function1s::Table<Type>::checkX(Foam::scalar) const [with Type = Foam::Vector2D<double>; Foam::scalar = double]
    in file lnInclude/Table.C at line 107
    "value (1.00735) overflow"

smoothSolver:  Solving for Ux, Initial residual = 0.0595533, Final residual = 0.00321737, No Iterations 1
smoothSolver:  Solving for Uy, Initial residual = 0.0595927, Final residual = 0.00318505, No Iterations 1
smoothSolver:  Solving for Uz, Initial residual = 0.0709533, Final residual = 0.00407497, No Iterations 1
DICPCG:  Solving for p, Initial residual = 0.0281006, Final residual = 0.00128443, No Iterations 21
time step continuity errors : sum local = 0.0209366, global = 0.000501604, cumulative = 0.0760149
smoothSolver:  Solving for omega, Initial residual = 0.0275996, Final residual = 0.00135806, No Iterations 1
smoothSolver:  Solving for k, Initial residual = 0.0752915, Final residual = 0.0038234, No Iterations 1
ExecutionTime = 26.7035 s  ClockTime = 27 s

volFieldValue Uavg_propeller write:
    volAverage(propeller) of U = (0.144436 -0.0487009 3.09732)

surfaceFieldValue phi_farField write:
    orientedSum(farField) of phi = 0.714035

surfaceFieldValue phi_top write:
    orientedSum(top) of phi = -0.689958

Time = 28s

--> FOAM Warning : 
    From function void Foam::Function1s::Table<Type>::checkX(Foam::scalar) const [with Type = Foam::Vector2D<double>; Foam::scalar = double]
    in file lnInclude/Table.C at line 107
    "value (1.03244) overflow"

--> FOAM Warning : 
    From function void Foam::Function1s::Table<Type>::checkX(Foam::scalar) const [with Type = Foam::Vector2D<double>; Foam::scalar = double]
    in file lnInclude/Table.C at line 107
    "value (0.99843) overflow"

smoothSolver:  Solving for Ux, Initial residual = 0.0588905, Final residual = 0.0032135, No Iterations 1
smoothSolver:  Solving for Uy, Initial residual = 0.0588738, Final residual = 0.00317448, No Iterations 1
smoothSolver:  Solving for Uz, Initial residual = 0.0688764, Final residual = 0.00393457, No Iterations 1
DICPCG:  Solving for p, Initial residual = 0.0289028, Final residual = 0.00142328, No Iterations 17
time step continuity errors : sum local = 0.0219801, global = 0.00249212, cumulative = 0.078507
smoothSolver:  Solving for omega, Initial residual = 0.0272929, Final residual = 0.00133518, No Iterations 1
smoothSolver:  Solving for k, Initial residual = 0.0766606, Final residual = 0.00388162, No Iterations 1
ExecutionTime = 27.5087 s  ClockTime = 27 s

volFieldValue Uavg_propeller write:
    volAverage(propeller) of U = (0.106804 -0.0265203 2.75031)

surfaceFieldValue phi_farField write:
    orientedSum(farField) of phi = 0.671623

surfaceFieldValue phi_top write:
    orientedSum(top) of phi = -0.552001

Time = 29s

--> FOAM Warning : 
    From function void Foam::Function1s::Table<Type>::checkX(Foam::scalar) const [with Type = Foam::Vector2D<double>; Foam::scalar = double]
    in file lnInclude/Table.C at line 107
    "value (0.91677) overflow"

--> FOAM Warning : 
    From function void Foam::Function1s::Table<Type>::checkX(Foam::scalar) const [with Type = Foam::Vector2D<double>; Foam::scalar = double]
    in file lnInclude/Table.C at line 107
    "value (0.878468) overflow"

smoothSolver:  Solving for Ux, Initial residual = 0.0583152, Final residual = 0.00320512, No Iterations 1
smoothSolver:  Solving for Uy, Initial residual = 0.0582997, Final residual = 0.00316016, No Iterations 1
smoothSolver:  Solving for Uz, Initial residual = 0.0678524, Final residual = 0.00387414, No Iterations 1
DICPCG:  Solving for p, Initial residual = 0.0265007, Final residual = 0.00132153, No Iterations 23
time step continuity errors : sum local = 0.0209874, global = 0.00599483, cumulative = 0.0845019
smoothSolver:  Solving for omega, Initial residual = 0.0270668, Final residual = 0.00131866, No Iterations 1
smoothSolver:  Solving for k, Initial residual = 0.0773123, Final residual = 0.00391109, No Iterations 1
ExecutionTime = 28.3659 s  ClockTime = 28 s

volFieldValue Uavg_propeller write:
    volAverage(propeller) of U = (0.0690165 -0.00204816 2.2865)

surfaceFieldValue phi_farField write:
    orientedSum(farField) of phi = 0.625763

surfaceFieldValue phi_top write:
    orientedSum(top) of phi = -0.338012

Time = 30s

smoothSolver:  Solving for Ux, Initial residual = 0.0571869, Final residual = 0.00316143, No Iterations 1
smoothSolver:  Solving for Uy, Initial residual = 0.0571506, Final residual = 0.00311278, No Iterations 1
smoothSolver:  Solving for Uz, Initial residual = 0.0659575, Final residual = 0.00378173, No Iterations 1
DICPCG:  Solving for p, Initial residual = 0.0197576, Final residual = 0.000910444, No Iterations 21
time step continuity errors : sum local = 0.018719, global = 0.00509903, cumulative = 0.0896009
smoothSolver:  Solving for omega, Initial residual = 0.0269835, Final residual = 0.00131248, No Iterations 1
smoothSolver:  Solving for k, Initial residual = 0.0781388, Final residual = 0.00395645, No Iterations 1
ExecutionTime = 29.2667 s  ClockTime = 29 s

volFieldValue Uavg_propeller write:
    volAverage(propeller) of U = (0.0393406 0.0189593 1.84085)

surfaceFieldValue phi_farField write:
    orientedSum(farField) of phi = 0.46814

surfaceFieldValue phi_top write:
    orientedSum(top) of phi = -0.223386

Time = 31s

smoothSolver:  Solving for Ux, Initial residual = 0.0559559, Final residual = 0.00310477, No Iterations 1
smoothSolver:  Solving for Uy, Initial residual = 0.0558907, Final residual = 0.00305463, No Iterations 1
smoothSolver:  Solving for Uz, Initial residual = 0.0638346, Final residual = 0.00368435, No Iterations 1
DICPCG:  Solving for p, Initial residual = 0.0204095, Final residual = 0.000967886, No Iterations 19
time step continuity errors : sum local = 0.0188975, global = 0.00516594, cumulative = 0.0947668
smoothSolver:  Solving for omega, Initial residual = 0.0269687, Final residual = 0.00131341, No Iterations 1
smoothSolver:  Solving for k, Initial residual = 0.078945, Final residual = 0.00400389, No Iterations 1
ExecutionTime = 30.1362 s  ClockTime = 30 s

volFieldValue Uavg_propeller write:
    volAverage(propeller) of U = (0.0226723 0.0319809 1.48006)

surfaceFieldValue phi_farField write:
    orientedSum(farField) of phi = 0.297973

surfaceFieldValue phi_top write:
    orientedSum(top) of phi = -0.0500078

Time = 32s

smoothSolver:  Solving for Ux, Initial residual = 0.0550702, Final residual = 0.00306981, No Iterations 1
smoothSolver:  Solving for Uy, Initial residual = 0.0550094, Final residual = 0.00301643, No Iterations 1
smoothSolver:  Solving for Uz, Initial residual = 0.0621557, Final residual = 0.00360768, No Iterations 1
DICPCG:  Solving for p, Initial residual = 0.0214303, Final residual = 0.00103074, No Iterations 19
time step continuity errors : sum local = 0.0187066, global = -0.000515594, cumulative = 0.0942513
smoothSolver:  Solving for omega, Initial residual = 0.0270763, Final residual = 0.00132271, No Iterations 1
smoothSolver:  Solving for k, Initial residual = 0.0796396, Final residual = 0.00404625, No Iterations 1
ExecutionTime = 30.9846 s  ClockTime = 31 s

volFieldValue Uavg_propeller write:
    volAverage(propeller) of U = (0.0182873 0.0367971 1.29419)

surfaceFieldValue phi_farField write:
    orientedSum(farField) of phi = 0.0038339

surfaceFieldValue phi_top write:
    orientedSum(top) of phi = -0.0285824

Time = 33s

smoothSolver:  Solving for Ux, Initial residual = 0.0546517, Final residual = 0.00305992, No Iterations 1
smoothSolver:  Solving for Uy, Initial residual = 0.0546191, Final residual = 0.00300064, No Iterations 1
smoothSolver:  Solving for Uz, Initial residual = 0.0618255, Final residual = 0.00359688, No Iterations 1
DICPCG:  Solving for p, Initial residual = 0.027671, Final residual = 0.00135175, No Iterations 23
time step continuity errors : sum local = 0.0183507, global = -0.00513801, cumulative = 0.0891132
smoothSolver:  Solving for omega, Initial residual = 0.0273564, Final residual = 0.00134026, No Iterations 1
smoothSolver:  Solving for k, Initial residual = 0.0805793, Final residual = 0.00411283, No Iterations 1
ExecutionTime = 31.8151 s  ClockTime = 32 s

volFieldValue Uavg_propeller write:
    volAverage(propeller) of U = (0.0210687 0.0356728 1.331)

surfaceFieldValue phi_farField write:
    orientedSum(farField) of phi = -0.241003

surfaceFieldValue phi_top write:
    orientedSum(top) of phi = -0.00562123

Time = 34s

smoothSolver:  Solving for Ux, Initial residual = 0.0542957, Final residual = 0.0030495, No Iterations 1
smoothSolver:  Solving for Uy, Initial residual = 0.0542823, Final residual = 0.00298661, No Iterations 1
smoothSolver:  Solving for Uz, Initial residual = 0.0625492, Final residual = 0.00363232, No Iterations 1
DICPCG:  Solving for p, Initial residual = 0.0371751, Final residual = 0.00170681, No Iterations 25
time step continuity errors : sum local = 0.0170496, global = -0.00295384, cumulative = 0.0861594
smoothSolver:  Solving for omega, Initial residual = 0.0276551, Final residual = 0.00136138, No Iterations 1
smoothSolver:  Solving for k, Initial residual = 0.0810731, Final residual = 0.00417586, No Iterations 1
ExecutionTime = 32.7054 s  ClockTime = 33 s

volFieldValue Uavg_propeller write:
    volAverage(propeller) of U = (0.025543 0.0312246 1.44006)

surfaceFieldValue phi_farField write:
    orientedSum(farField) of phi = -0.368594

surfaceFieldValue phi_top write:
    orientedSum(top) of phi = 0.22681

Time = 35s

smoothSolver:  Solving for Ux, Initial residual = 0.0536337, Final residual = 0.00302537, No Iterations 1
smoothSolver:  Solving for Uy, Initial residual = 0.0536314, Final residual = 0.00296048, No Iterations 1
smoothSolver:  Solving for Uz, Initial residual = 0.0629815, Final residual = 0.00364719, No Iterations 1
DICPCG:  Solving for p, Initial residual = 0.0330981, Final residual = 0.00151398, No Iterations 23
time step continuity errors : sum local = 0.0174548, global = -0.0022337, cumulative = 0.0839257
smoothSolver:  Solving for omega, Initial residual = 0.0278853, Final residual = 0.00138315, No Iterations 1
smoothSolver:  Solving for k, Initial residual = 0.080923, Final residual = 0.00421755, No Iterations 1
ExecutionTime = 33.6457 s  ClockTime = 34 s

volFieldValue Uavg_propeller write:
    volAverage(propeller) of U = (0.0280363 0.0267035 1.48214)

surfaceFieldValue phi_farField write:
    orientedSum(farField) of phi = -0.563269

surfaceFieldValue phi_top write:
    orientedSum(top) of phi = 0.456052

Time = 36s

smoothSolver:  Solving for Ux, Initial residual = 0.0527674, Final residual = 0.00299721, No Iterations 1
smoothSolver:  Solving for Uy, Initial residual = 0.0527662, Final residual = 0.00292946, No Iterations 1
smoothSolver:  Solving for Uz, Initial residual = 0.0628284, Final residual = 0.00363283, No Iterations 1
DICPCG:  Solving for p, Initial residual = 0.0463878, Final residual = 0.00225313, No Iterations 20
time step continuity errors : sum local = 0.0183574, global = -0.00653337, cumulative = 0.0773923
smoothSolver:  Solving for omega, Initial residual = 0.0281814, Final residual = 0.00141027, No Iterations 1
smoothSolver:  Solving for k, Initial residual = 0.0803554, Final residual = 0.00423169, No Iterations 1
ExecutionTime = 34.516 s  ClockTime = 34 s

volFieldValue Uavg_propeller write:
    volAverage(propeller) of U = (0.0267406 0.0242649 1.40229)

surfaceFieldValue phi_farField write:
    orientedSum(farField) of phi = -0.857234

surfaceFieldValue phi_top write:
    orientedSum(top) of phi = 0.543633

Time = 37s

smoothSolver:  Solving for Ux, Initial residual = 0.0519194, Final residual = 0.00297416, No Iterations 1
smoothSolver:  Solving for Uy, Initial residual = 0.0519028, Final residual = 0.00290338, No Iterations 1
smoothSolver:  Solving for Uz, Initial residual = 0.0630563, Final residual = 0.003645, No Iterations 1
DICPCG:  Solving for p, Initial residual = 0.112245, Final residual = 0.00501893, No Iterations 19
time step continuity errors : sum local = 0.0163913, global = -0.00495443, cumulative = 0.0724379
smoothSolver:  Solving for omega, Initial residual = 0.0286059, Final residual = 0.00144245, No Iterations 1
smoothSolver:  Solving for k, Initial residual = 0.0795305, Final residual = 0.00421914, No Iterations 1
ExecutionTime = 35.3616 s  ClockTime = 35 s

volFieldValue Uavg_propeller write:
    volAverage(propeller) of U = (0.0216566 0.0230459 1.17853)

surfaceFieldValue phi_farField write:
    orientedSum(farField) of phi = -0.946913

surfaceFieldValue phi_top write:
    orientedSum(top) of phi = 0.7091

Time = 38s

smoothSolver:  Solving for Ux, Initial residual = 0.0513388, Final residual = 0.00296402, No Iterations 1
smoothSolver:  Solving for Uy, Initial residual = 0.051288, Final residual = 0.00288844, No Iterations 1
smoothSolver:  Solving for Uz, Initial residual = 0.0632544, Final residual = 0.00366083, No Iterations 1
DICPCG:  Solving for p, Initial residual = 0.317805, Final residual = 0.0141534, No Iterations 18
time step continuity errors : sum local = 0.0158554, global = -0.00161294, cumulative = 0.070825
smoothSolver:  Solving for omega, Initial residual = 0.0292235, Final residual = 0.00148362, No Iterations 1
smoothSolver:  Solving for k, Initial residual = 0.0786548, Final residual = 0.00419257, No Iterations 1
ExecutionTime = 36.2151 s  ClockTime = 36 s

volFieldValue Uavg_propeller write:
    volAverage(propeller) of U = (0.0132073 0.0209994 0.89637)

surfaceFieldValue phi_farField write:
    orientedSum(farField) of phi = -0.975387

surfaceFieldValue phi_top write:
    orientedSum(top) of phi = 0.897966

Time = 39s

--> FOAM Warning : 
    From function void Foam::Function1s::Table<Type>::checkX(Foam::scalar) const [with Type = Foam::Vector2D<double>; Foam::scalar = double]
    in file lnInclude/Table.C at line 107
    "value (-0.567566) underflow"

smoothSolver:  Solving for Ux, Initial residual = 0.0508026, Final residual = 0.00295189, No Iterations 1
smoothSolver:  Solving for Uy, Initial residual = 0.0507378, Final residual = 0.00287223, No Iterations 1
smoothSolver:  Solving for Uz, Initial residual = 0.062823, Final residual = 0.00364709, No Iterations 1
DICPCG:  Solving for p, Initial residual = 0.323223, Final residual = 0.0159626, No Iterations 16
time step continuity errors : sum local = 0.0170919, global = -0.00138836, cumulative = 0.0694366
smoothSolver:  Solving for omega, Initial residual = 0.0301381, Final residual = 0.00154064, No Iterations 1
smoothSolver:  Solving for k, Initial residual = 0.0779781, Final residual = 0.00417763, No Iterations 1
ExecutionTime = 37.0963 s  ClockTime = 37 s

volFieldValue Uavg_propeller write:
    volAverage(propeller) of U = (0.00286109 0.0160521 0.633229)

surfaceFieldValue phi_farField write:
    orientedSum(farField) of phi = -1.10801

surfaceFieldValue phi_top write:
    orientedSum(top) of phi = 1.04137

Time = 40s

--> FOAM Warning : 
    From function void Foam::Function1s::Table<Type>::checkX(Foam::scalar) const [with Type = Foam::Vector2D<double>; Foam::scalar = double]
    in file lnInclude/Table.C at line 107
    "value (-1.16071) underflow"

smoothSolver:  Solving for Ux, Initial residual = 0.0502433, Final residual = 0.00293436, No Iterations 1
smoothSolver:  Solving for Uy, Initial residual = 0.0501741, Final residual = 0.00285168, No Iterations 1
smoothSolver:  Solving for Uz, Initial residual = 0.0618461, Final residual = 0.00360322, No Iterations 1
DICPCG:  Solving for p, Initial residual = 0.200616, Final residual = 0.00984442, No Iterations 14
time step continuity errors : sum local = 0.0164697, global = 0.000182705, cumulative = 0.0696193
smoothSolver:  Solving for omega, Initial residual = 0.0313384, Final residual = 0.0016076, No Iterations 1
smoothSolver:  Solving for k, Initial residual = 0.0776074, Final residual = 0.00417317, No Iterations 1
ExecutionTime = 37.9017 s  ClockTime = 38 s

volFieldValue Uavg_propeller write:
    volAverage(propeller) of U = (-0.00754809 0.00595124 0.442191)

surfaceFieldValue phi_farField write:
    orientedSum(farField) of phi = -1.22013

surfaceFieldValue phi_top write:
    orientedSum(top) of phi = 1.2289

Time = 41s

--> FOAM Warning : 
    From function void Foam::Function1s::Table<Type>::checkX(Foam::scalar) const [with Type = Foam::Vector2D<double>; Foam::scalar = double]
    in file lnInclude/Table.C at line 107
    "value (-1.9582) underflow"

smoothSolver:  Solving for Ux, Initial residual = 0.0497393, Final residual = 0.00291784, No Iterations 1
smoothSolver:  Solving for Uy, Initial residual = 0.049668, Final residual = 0.00283252, No Iterations 1
smoothSolver:  Solving for Uz, Initial residual = 0.0605075, Final residual = 0.00353557, No Iterations 1
DICPCG:  Solving for p, Initial residual = 0.165213, Final residual = 0.00758589, No Iterations 15
time step continuity errors : sum local = 0.0150415, global = 0.00261821, cumulative = 0.0722375
smoothSolver:  Solving for omega, Initial residual = 0.0327445, Final residual = 0.00168364, No Iterations 1
smoothSolver:  Solving for k, Initial residual = 0.0773441, Final residual = 0.00418511, No Iterations 1
ExecutionTime = 38.7577 s  ClockTime = 39 s

volFieldValue Uavg_propeller write:
    volAverage(propeller) of U = (-0.0170596 -0.00883112 0.340666)

surfaceFieldValue phi_farField write:
    orientedSum(farField) of phi = -1.2737

surfaceFieldValue phi_top write:
    orientedSum(top) of phi = 1.39937

Time = 42s

--> FOAM Warning : 
    From function void Foam::Function1s::Table<Type>::checkX(Foam::scalar) const [with Type = Foam::Vector2D<double>; Foam::scalar = double]
    in file lnInclude/Table.C at line 107
    "value (-2.71145) underflow"

smoothSolver:  Solving for Ux, Initial residual = 0.0493029, Final residual = 0.00290165, No Iterations 1
smoothSolver:  Solving for Uy, Initial residual = 0.049238, Final residual = 0.00281355, No Iterations 1
smoothSolver:  Solving for Uz, Initial residual = 0.0590953, Final residual = 0.00344872, No Iterations 1
DICPCG:  Solving for p, Initial residual = 0.147649, Final residual = 0.00718911, No Iterations 14
time step continuity errors : sum local = 0.0153943, global = 0.00324628, cumulative = 0.0754838
smoothSolver:  Solving for omega, Initial residual = 0.0343611, Final residual = 0.00176716, No Iterations 1
smoothSolver:  Solving for k, Initial residual = 0.0777087, Final residual = 0.00422172, No Iterations 1
ExecutionTime = 39.5898 s  ClockTime = 40 s

volFieldValue Uavg_propeller write:
    volAverage(propeller) of U = (-0.0248515 -0.0261689 0.312111)

surfaceFieldValue phi_farField write:
    orientedSum(farField) of phi = -1.40125

surfaceFieldValue phi_top write:
    orientedSum(top) of phi = 1.55707

Time = 43s

--> FOAM Warning : 
    From function void Foam::Function1s::Table<Type>::checkX(Foam::scalar) const [with Type = Foam::Vector2D<double>; Foam::scalar = double]
    in file lnInclude/Table.C at line 107
    "value (-3.00764) underflow"

smoothSolver:  Solving for Ux, Initial residual = 0.0488413, Final residual = 0.0028819, No Iterations 1
smoothSolver:  Solving for Uy, Initial residual = 0.0487813, Final residual = 0.00279237, No Iterations 1
smoothSolver:  Solving for Uz, Initial residual = 0.0579692, Final residual = 0.0033812, No Iterations 1
DICPCG:  Solving for p, Initial residual = 0.137033, Final residual = 0.00628756, No Iterations 14
time step continuity errors : sum local = 0.0139743, global = 0.00276166, cumulative = 0.0782455
smoothSolver:  Solving for omega, Initial residual = 0.0360814, Final residual = 0.00185399, No Iterations 1
smoothSolver:  Solving for k, Initial residual = 0.0782637, Final residual = 0.00428427, No Iterations 1
ExecutionTime = 40.4069 s  ClockTime = 40 s

volFieldValue Uavg_propeller write:
    volAverage(propeller) of U = (-0.0308824 -0.043572 0.318211)

surfaceFieldValue phi_farField write:
    orientedSum(farField) of phi = -1.56093

surfaceFieldValue phi_top write:
    orientedSum(top) of phi = 1.69349

Time = 44s

--> FOAM Warning : 
    From function void Foam::Function1s::Table<Type>::checkX(Foam::scalar) const [with Type = Foam::Vector2D<double>; Foam::scalar = double]
    in file lnInclude/Table.C at line 107
    "value (-2.94004) underflow"

smoothSolver:  Solving for Ux, Initial residual = 0.0482068, Final residual = 0.00285187, No Iterations 1
smoothSolver:  Solving for Uy, Initial residual = 0.0481501, Final residual = 0.00276278, No Iterations 1
smoothSolver:  Solving for Uz, Initial residual = 0.0568486, Final residual = 0.00332166, No Iterations 1
DICPCG:  Solving for p, Initial residual = 0.127266, Final residual = 0.00630726, No Iterations 13
time step continuity errors : sum local = 0.0145225, global = 0.00139665, cumulative = 0.0796421
smoothSolver:  Solving for omega, Initial residual = 0.0378474, Final residual = 0.00193857, No Iterations 1
smoothSolver:  Solving for k, Initial residual = 0.0792564, Final residual = 0.00436649, No Iterations 1
ExecutionTime = 41.1592 s  ClockTime = 41 s

volFieldValue Uavg_propeller write:
    volAverage(propeller) of U = (-0.035336 -0.0583133 0.318062)

surfaceFieldValue phi_farField write:
    orientedSum(farField) of phi = -1.75458

surfaceFieldValue phi_top write:
    orientedSum(top) of phi = 1.82161

Time = 45s

--> FOAM Warning : 
    From function void Foam::Function1s::Table<Type>::checkX(Foam::scalar) const [with Type = Foam::Vector2D<double>; Foam::scalar = double]
    in file lnInclude/Table.C at line 107
    "value (-2.94167) underflow"

smoothSolver:  Solving for Ux, Initial residual = 0.0474326, Final residual = 0.00281217, No Iterations 1
smoothSolver:  Solving for Uy, Initial residual = 0.0473915, Final residual = 0.00272539, No Iterations 1
smoothSolver:  Solving for Uz, Initial residual = 0.0559143, Final residual = 0.00326685, No Iterations 1
DICPCG:  Solving for p, Initial residual = 0.120458, Final residual = 0.00547172, No Iterations 13
time step continuity errors : sum local = 0.0128282, global = -0.000237507, cumulative = 0.0794046
smoothSolver:  Solving for omega, Initial residual = 0.0396804, Final residual = 0.00202327, No Iterations 1
smoothSolver:  Solving for k, Initial residual = 0.0805366, Final residual = 0.00445956, No Iterations 1
ExecutionTime = 41.9648 s  ClockTime = 42 s

volFieldValue Uavg_propeller write:
    volAverage(propeller) of U = (-0.0384403 -0.0664526 0.285245)

surfaceFieldValue phi_farField write:
    orientedSum(farField) of phi = -1.95025

surfaceFieldValue phi_top write:
    orientedSum(top) of phi = 1.93885

Time = 46s

--> FOAM Warning : 
    From function void Foam::Function1s::Table<Type>::checkX(Foam::scalar) const [with Type = Foam::Vector2D<double>; Foam::scalar = double]
    in file lnInclude/Table.C at line 107
    "value (-3.32277) underflow"

smoothSolver:  Solving for Ux, Initial residual = 0.0465727, Final residual = 0.00276539, No Iterations 1
smoothSolver:  Solving for Uy, Initial residual = 0.0465531, Final residual = 0.00268205, No Iterations 1
smoothSolver:  Solving for Uz, Initial residual = 0.0551072, Final residual = 0.00321341, No Iterations 1
DICPCG:  Solving for p, Initial residual = 0.112575, Final residual = 0.00492, No Iterations 13
time step continuity errors : sum local = 0.0119537, global = -0.00178363, cumulative = 0.077621
smoothSolver:  Solving for omega, Initial residual = 0.0415637, Final residual = 0.00210559, No Iterations 1
smoothSolver:  Solving for k, Initial residual = 0.082054, Final residual = 0.00455378, No Iterations 1
ExecutionTime = 42.7462 s  ClockTime = 43 s

volFieldValue Uavg_propeller write:
    volAverage(propeller) of U = (-0.0421706 -0.0656882 0.215536)

surfaceFieldValue phi_farField write:
    orientedSum(farField) of phi = -2.14268

surfaceFieldValue phi_top write:
    orientedSum(top) of phi = 2.05707

Time = 47s

--> FOAM Warning : 
    From function void Foam::Function1s::Table<Type>::checkX(Foam::scalar) const [with Type = Foam::Vector2D<double>; Foam::scalar = double]
    in file lnInclude/Table.C at line 107
    "value (-4.45142) underflow"

smoothSolver:  Solving for Ux, Initial residual = 0.0457761, Final residual = 0.00271949, No Iterations 1
smoothSolver:  Solving for Uy, Initial residual = 0.0457865, Final residual = 0.00264056, No Iterations 1
smoothSolver:  Solving for Uz, Initial residual = 0.0543966, Final residual = 0.00316381, No Iterations 1
DICPCG:  Solving for p, Initial residual = 0.105625, Final residual = 0.00469584, No Iterations 13
time step continuity errors : sum local = 0.0117655, global = -0.00288175, cumulative = 0.0747392
smoothSolver:  Solving for omega, Initial residual = 0.0433952, Final residual = 0.00218287, No Iterations 1
smoothSolver:  Solving for k, Initial residual = 0.0837171, Final residual = 0.00463413, No Iterations 1
ExecutionTime = 43.5578 s  ClockTime = 43 s

volFieldValue Uavg_propeller write:
    volAverage(propeller) of U = (-0.0477132 -0.0571871 0.121169)

surfaceFieldValue phi_farField write:
    orientedSum(farField) of phi = -2.31952

surfaceFieldValue phi_top write:
    orientedSum(top) of phi = 2.1812

Time = 48s

--> FOAM Warning : 
    From function void Foam::Function1s::Table<Type>::checkX(Foam::scalar) const [with Type = Foam::Vector2D<double>; Foam::scalar = double]
    in file lnInclude/Table.C at line 107
    "value (-8.0056) underflow"

smoothSolver:  Solving for Ux, Initial residual = 0.0451061, Final residual = 0.00267606, No Iterations 1
smoothSolver:  Solving for Uy, Initial residual = 0.0451651, Final residual = 0.00260324, No Iterations 1
smoothSolver:  Solving for Uz, Initial residual = 0.0536882, Final residual = 0.00311479, No Iterations 1
DICPCG:  Solving for p, Initial residual = 0.0993941, Final residual = 0.00449547, No Iterations 13
time step continuity errors : sum local = 0.0115021, global = -0.00327751, cumulative = 0.0714617
smoothSolver:  Solving for omega, Initial residual = 0.0450411, Final residual = 0.00225436, No Iterations 1
smoothSolver:  Solving for k, Initial residual = 0.0852325, Final residual = 0.00470273, No Iterations 1
ExecutionTime = 44.3841 s  ClockTime = 44 s

volFieldValue Uavg_propeller write:
    volAverage(propeller) of U = (-0.0557842 -0.0448691 0.0218092)

surfaceFieldValue phi_farField write:
    orientedSum(farField) of phi = -2.47116

surfaceFieldValue phi_top write:
    orientedSum(top) of phi = 2.31384

Time = 49s

--> FOAM Warning : 
    From function void Foam::Function1s::Table<Type>::checkX(Foam::scalar) const [with Type = Foam::Vector2D<double>; Foam::scalar = double]
    in file lnInclude/Table.C at line 107
    "value (-44.695) underflow"

smoothSolver:  Solving for Ux, Initial residual = 0.0444993, Final residual = 0.00263233, No Iterations 1
smoothSolver:  Solving for Uy, Initial residual = 0.0446125, Final residual = 0.00256722, No Iterations 1
smoothSolver:  Solving for Uz, Initial residual = 0.0528508, Final residual = 0.00305706, No Iterations 1
DICPCG:  Solving for p, Initial residual = 0.0932666, Final residual = 0.00427223, No Iterations 13
time step continuity errors : sum local = 0.0111372, global = -0.00287164, cumulative = 0.0685901
smoothSolver:  Solving for omega, Initial residual = 0.0464716, Final residual = 0.00232034, No Iterations 1
smoothSolver:  Solving for k, Initial residual = 0.0865064, Final residual = 0.00475178, No Iterations 1
ExecutionTime = 45.138 s  ClockTime = 45 s

volFieldValue Uavg_propeller write:
    volAverage(propeller) of U = (-0.0654626 -0.0330064 -0.0616874)

surfaceFieldValue phi_farField write:
    orientedSum(farField) of phi = -2.59313

surfaceFieldValue phi_top write:
    orientedSum(top) of phi = 2.45529

Time = 50s

--> FOAM Warning : 
    From function void Foam::Function1s::Table<Type>::checkX(Foam::scalar) const [with Type = Foam::Vector2D<double>; Foam::scalar = double]
    in file lnInclude/Table.C at line 107
    "value (-15.7837) underflow"

smoothSolver:  Solving for Ux, Initial residual = 0.0439062, Final residual = 0.00258755, No Iterations 1
smoothSolver:  Solving for Uy, Initial residual = 0.0440792, Final residual = 0.00253082, No Iterations 1
smoothSolver:  Solving for Uz, Initial residual = 0.0518134, Final residual = 0.00298422, No Iterations 1
DICPCG:  Solving for p, Initial residual = 0.0879212, Final residual = 0.00408819, No Iterations 13
time step continuity errors : sum local = 0.0107813, global = -0.00174203, cumulative = 0.066848
smoothSolver:  Solving for omega, Initial residual = 0.0476535, Final residual = 0.00237245, No Iterations 1
smoothSolver:  Solving for k, Initial residual = 0.0874756, Final residual = 0.00476497, No Iterations 1
ExecutionTime = 46.9991 s  ClockTime = 47 s

volFieldValue Uavg_propeller write:
    volAverage(propeller) of U = (-0.0759018 -0.0238224 -0.118653)

surfaceFieldValue phi_farField write:
    orientedSum(farField) of phi = -2.6875

surfaceFieldValue phi_top write:
    orientedSum(top) of phi = 2.60388

Time = 51s

--> FOAM Warning : 
    From function void Foam::Function1s::Table<Type>::checkX(Foam::scalar) const [with Type = Foam::Vector2D<double>; Foam::scalar = double]
    in file lnInclude/Table.C at line 107
    "value (-8.17702) underflow"

smoothSolver:  Solving for Ux, Initial residual = 0.0432886, Final residual = 0.00254027, No Iterations 1
smoothSolver:  Solving for Uy, Initial residual = 0.0435298, Final residual = 0.00249193, No Iterations 1
smoothSolver:  Solving for Uz, Initial residual = 0.0505825, Final residual = 0.00289496, No Iterations 1
DICPCG:  Solving for p, Initial residual = 0.0835893, Final residual = 0.00391639, No Iterations 13
time step continuity errors : sum local = 0.0103456, global = -0.000162519, cumulative = 0.0666855
smoothSolver:  Solving for omega, Initial residual = 0.0485532, Final residual = 0.00240718, No Iterations 1
smoothSolver:  Solving for k, Initial residual = 0.0880162, Final residual = 0.00473752, No Iterations 1
ExecutionTime = 47.8647 s  ClockTime = 48 s

volFieldValue Uavg_propeller write:
    volAverage(propeller) of U = (-0.0849697 -0.0173164 -0.149048)

surfaceFieldValue phi_farField write:
    orientedSum(farField) of phi = -2.76443

surfaceFieldValue phi_top write:
    orientedSum(top) of phi = 2.75663

Time = 52s

--> FOAM Warning : 
    From function void Foam::Function1s::Table<Type>::checkX(Foam::scalar) const [with Type = Foam::Vector2D<double>; Foam::scalar = double]
    in file lnInclude/Table.C at line 107
    "value (-6.49133) underflow"

smoothSolver:  Solving for Ux, Initial residual = 0.0425979, Final residual = 0.00248844, No Iterations 1
smoothSolver:  Solving for Uy, Initial residual = 0.0429139, Final residual = 0.00244812, No Iterations 1
smoothSolver:  Solving for Uz, Initial residual = 0.0491956, Final residual = 0.00279117, No Iterations 1
DICPCG:  Solving for p, Initial residual = 0.0802805, Final residual = 0.00380836, No Iterations 13
time step continuity errors : sum local = 0.00994897, global = 0.00151632, cumulative = 0.0682018
smoothSolver:  Solving for omega, Initial residual = 0.0492244, Final residual = 0.00242879, No Iterations 1
smoothSolver:  Solving for k, Initial residual = 0.0880621, Final residual = 0.00468587, No Iterations 1
ExecutionTime = 48.6913 s  ClockTime = 49 s

volFieldValue Uavg_propeller write:
    volAverage(propeller) of U = (-0.0918968 -0.0131922 -0.159063)

surfaceFieldValue phi_farField write:
    orientedSum(farField) of phi = -2.83758

surfaceFieldValue phi_top write:
    orientedSum(top) of phi = 2.91037

Time = 53s

--> FOAM Warning : 
    From function void Foam::Function1s::Table<Type>::checkX(Foam::scalar) const [with Type = Foam::Vector2D<double>; Foam::scalar = double]
    in file lnInclude/Table.C at line 107
    "value (-6.07615) underflow"

smoothSolver:  Solving for Ux, Initial residual = 0.0417936, Final residual = 0.00242962, No Iterations 1
smoothSolver:  Solving for Uy, Initial residual = 0.0421854, Final residual = 0.00239696, No Iterations 1
smoothSolver:  Solving for Uz, Initial residual = 0.0476949, Final residual = 0.00267729, No Iterations 1
DICPCG:  Solving for p, Initial residual = 0.0779521, Final residual = 0.00353101, No Iterations 14
time step continuity errors : sum local = 0.00900789, global = 0.00285377, cumulative = 0.0710556
smoothSolver:  Solving for omega, Initial residual = 0.0496964, Final residual = 0.00243962, No Iterations 1
smoothSolver:  Solving for k, Initial residual = 0.0875384, Final residual = 0.00461339, No Iterations 1
ExecutionTime = 49.5351 s  ClockTime = 49 s

volFieldValue Uavg_propeller write:
    volAverage(propeller) of U = (-0.0967634 -0.0103336 -0.158698)

surfaceFieldValue phi_farField write:
    orientedSum(farField) of phi = -2.92456

surfaceFieldValue phi_top write:
    orientedSum(top) of phi = 3.06155

Time = 54s

--> FOAM Warning : 
    From function void Foam::Function1s::Table<Type>::checkX(Foam::scalar) const [with Type = Foam::Vector2D<double>; Foam::scalar = double]
    in file lnInclude/Table.C at line 107
    "value (-6.09035) underflow"

smoothSolver:  Solving for Ux, Initial residual = 0.0408677, Final residual = 0.00236323, No Iterations 1
smoothSolver:  Solving for Uy, Initial residual = 0.0413245, Final residual = 0.00233717, No Iterations 1
smoothSolver:  Solving for Uz, Initial residual = 0.0460657, Final residual = 0.00255363, No Iterations 1
DICPCG:  Solving for p, Initial residual = 0.0765946, Final residual = 0.00375989, No Iterations 16
time step continuity errors : sum local = 0.00923646, global = 0.00287568, cumulative = 0.0739313
smoothSolver:  Solving for omega, Initial residual = 0.0499555, Final residual = 0.00243551, No Iterations 1
smoothSolver:  Solving for k, Initial residual = 0.0867944, Final residual = 0.0045242, No Iterations 1
ExecutionTime = 50.349 s  ClockTime = 50 s

volFieldValue Uavg_propeller write:
    volAverage(propeller) of U = (-0.10068 -0.00789828 -0.159014)

surfaceFieldValue phi_farField write:
    orientedSum(farField) of phi = -3.06684

surfaceFieldValue phi_top write:
    orientedSum(top) of phi = 3.20487

Time = 55s

--> FOAM Warning : 
    From function void Foam::Function1s::Table<Type>::checkX(Foam::scalar) const [with Type = Foam::Vector2D<double>; Foam::scalar = double]
    in file lnInclude/Table.C at line 107
    "value (-6.07806) underflow"

smoothSolver:  Solving for Ux, Initial residual = 0.0398275, Final residual = 0.00228983, No Iterations 1
smoothSolver:  Solving for Uy, Initial residual = 0.0403226, Final residual = 0.00226936, No Iterations 1
smoothSolver:  Solving for Uz, Initial residual = 0.0442324, Final residual = 0.00241978, No Iterations 1
DICPCG:  Solving for p, Initial residual = 0.0768071, Final residual = 0.00379872, No Iterations 20
time step continuity errors : sum local = 0.00881588, global = 0.000598127, cumulative = 0.0745294
smoothSolver:  Solving for omega, Initial residual = 0.0499635, Final residual = 0.0024148, No Iterations 1
smoothSolver:  Solving for k, Initial residual = 0.086084, Final residual = 0.00442247, No Iterations 1
ExecutionTime = 51.1841 s  ClockTime = 51 s

volFieldValue Uavg_propeller write:
    volAverage(propeller) of U = (-0.104028 -0.00436887 -0.172313)

surfaceFieldValue phi_farField write:
    orientedSum(farField) of phi = -3.30352

surfaceFieldValue phi_top write:
    orientedSum(top) of phi = 3.33223

Time = 56s

--> FOAM Warning : 
    From function void Foam::Function1s::Table<Type>::checkX(Foam::scalar) const [with Type = Foam::Vector2D<double>; Foam::scalar = double]
    in file lnInclude/Table.C at line 107
    "value (-5.60041) underflow"

smoothSolver:  Solving for Ux, Initial residual = 0.0386136, Final residual = 0.00220554, No Iterations 1
smoothSolver:  Solving for Uy, Initial residual = 0.0391394, Final residual = 0.00218992, No Iterations 1
smoothSolver:  Solving for Uz, Initial residual = 0.0421082, Final residual = 0.00227377, No Iterations 1
DICPCG:  Solving for p, Initial residual = 0.0797557, Final residual = 0.00371415, No Iterations 20
time step continuity errors : sum local = 0.00785937, global = 0.000268351, cumulative = 0.0747978
smoothSolver:  Solving for omega, Initial residual = 0.0496638, Final residual = 0.00237507, No Iterations 1
smoothSolver:  Solving for k, Initial residual = 0.0854325, Final residual = 0.004304, No Iterations 1
ExecutionTime = 52.0423 s  ClockTime = 52 s

volFieldValue Uavg_propeller write:
    volAverage(propeller) of U = (-0.10678 0.000679563 -0.203701)

surfaceFieldValue phi_farField write:
    orientedSum(farField) of phi = -3.45998

surfaceFieldValue phi_top write:
    orientedSum(top) of phi = 3.47286

Time = 57s

--> FOAM Warning : 
    From function void Foam::Function1s::Table<Type>::checkX(Foam::scalar) const [with Type = Foam::Vector2D<double>; Foam::scalar = double]
    in file lnInclude/Table.C at line 107
    "value (-4.71815) underflow"

smoothSolver:  Solving for Ux, Initial residual = 0.0373808, Final residual = 0.00211621, No Iterations 1
smoothSolver:  Solving for Uy, Initial residual = 0.037947, Final residual = 0.00210596, No Iterations 1
smoothSolver:  Solving for Uz, Initial residual = 0.0400036, Final residual = 0.00213115, No Iterations 1
DICPCG:  Solving for p, Initial residual = 0.0826847, Final residual = 0.00353569, No Iterations 11
time step continuity errors : sum local = 0.00685733, global = 0.00276813, cumulative = 0.0775659
smoothSolver:  Solving for omega, Initial residual = 0.0489621, Final residual = 0.0023163, No Iterations 1
smoothSolver:  Solving for k, Initial residual = 0.0844506, Final residual = 0.00416124, No Iterations 1
ExecutionTime = 52.8183 s  ClockTime = 53 s

volFieldValue Uavg_propeller write:
    volAverage(propeller) of U = (-0.109027 0.00639282 -0.250523)

surfaceFieldValue phi_farField write:
    orientedSum(farField) of phi = -3.48147

surfaceFieldValue phi_top write:
    orientedSum(top) of phi = 3.61434

Time = 58s

--> FOAM Warning : 
    From function void Foam::Function1s::Table<Type>::checkX(Foam::scalar) const [with Type = Foam::Vector2D<double>; Foam::scalar = double]
    in file lnInclude/Table.C at line 107
    "value (-3.80804) underflow"

smoothSolver:  Solving for Ux, Initial residual = 0.0362475, Final residual = 0.00203142, No Iterations 1
smoothSolver:  Solving for Uy, Initial residual = 0.0368748, Final residual = 0.00202817, No Iterations 1
smoothSolver:  Solving for Uz, Initial residual = 0.0382932, Final residual = 0.0020103, No Iterations 1
DICPCG:  Solving for p, Initial residual = 0.0807319, Final residual = 0.00372706, No Iterations 10
time step continuity errors : sum local = 0.00702766, global = 0.00205972, cumulative = 0.0796256
smoothSolver:  Solving for omega, Initial residual = 0.0478541, Final residual = 0.00223861, No Iterations 1
smoothSolver:  Solving for k, Initial residual = 0.0831797, Final residual = 0.00401359, No Iterations 1
ExecutionTime = 53.6062 s  ClockTime = 54 s

volFieldValue Uavg_propeller write:
    volAverage(propeller) of U = (-0.110355 0.0118021 -0.306426)

surfaceFieldValue phi_farField write:
    orientedSum(farField) of phi = -3.6469

surfaceFieldValue phi_top write:
    orientedSum(top) of phi = 3.74576

Time = 59s

--> FOAM Warning : 
    From function void Foam::Function1s::Table<Type>::checkX(Foam::scalar) const [with Type = Foam::Vector2D<double>; Foam::scalar = double]
    in file lnInclude/Table.C at line 107
    "value (-3.07299) underflow"

smoothSolver:  Solving for Ux, Initial residual = 0.0350922, Final residual = 0.00194439, No Iterations 1
smoothSolver:  Solving for Uy, Initial residual = 0.0357885, Final residual = 0.00194849, No Iterations 1
smoothSolver:  Solving for Uz, Initial residual = 0.0364844, Final residual = 0.00188273, No Iterations 1
DICPCG:  Solving for p, Initial residual = 0.0790678, Final residual = 0.00371491, No Iterations 10
time step continuity errors : sum local = 0.00676871, global = 0.00185708, cumulative = 0.0814827
smoothSolver:  Solving for omega, Initial residual = 0.0463413, Final residual = 0.00214066, No Iterations 1
smoothSolver:  Solving for k, Initial residual = 0.0813758, Final residual = 0.00384533, No Iterations 1
ExecutionTime = 54.4846 s  ClockTime = 54 s

volFieldValue Uavg_propeller write:
    volAverage(propeller) of U = (-0.110638 0.0167953 -0.363365)

surfaceFieldValue phi_farField write:
    orientedSum(farField) of phi = -3.79201

surfaceFieldValue phi_top write:
    orientedSum(top) of phi = 3.88115

Time = 60s

--> FOAM Warning : 
    From function void Foam::Function1s::Table<Type>::checkX(Foam::scalar) const [with Type = Foam::Vector2D<double>; Foam::scalar = double]
    in file lnInclude/Table.C at line 107
    "value (-2.50815) underflow"

smoothSolver:  Solving for Ux, Initial residual = 0.033883, Final residual = 0.00185446, No Iterations 1
smoothSolver:  Solving for Uy, Initial residual = 0.03464, Final residual = 0.00186547, No Iterations 1
smoothSolver:  Solving for Uz, Initial residual = 0.0345746, Final residual = 0.00174831, No Iterations 1
DICPCG:  Solving for p, Initial residual = 0.0774312, Final residual = 0.00338638, No Iterations 11
time step continuity errors : sum local = 0.00596359, global = 0.00203348, cumulative = 0.0835162
smoothSolver:  Solving for omega, Initial residual = 0.0444726, Final residual = 0.0020261, No Iterations 1
smoothSolver:  Solving for k, Initial residual = 0.0793647, Final residual = 0.00367357, No Iterations 1
ExecutionTime = 55.3027 s  ClockTime = 55 s

volFieldValue Uavg_propeller write:
    volAverage(propeller) of U = (-0.110161 0.0206941 -0.41347)

surfaceFieldValue phi_farField write:
    orientedSum(farField) of phi = -3.92449

surfaceFieldValue phi_top write:
    orientedSum(top) of phi = 4.0221

Time = 61s

--> FOAM Warning : 
    From function void Foam::Function1s::Table<Type>::checkX(Foam::scalar) const [with Type = Foam::Vector2D<double>; Foam::scalar = double]
    in file lnInclude/Table.C at line 107
    "value (-2.13546) underflow"

smoothSolver:  Solving for Ux, Initial residual = 0.0325715, Final residual = 0.00175961, No Iterations 1
smoothSolver:  Solving for Uy, Initial residual = 0.0333803, Final residual = 0.00177613, No Iterations 1
smoothSolver:  Solving for Uz, Initial residual = 0.0325842, Final residual = 0.00160976, No Iterations 1
DICPCG:  Solving for p, Initial residual = 0.0758482, Final residual = 0.00356123, No Iterations 13
time step continuity errors : sum local = 0.00603783, global = 0.00165861, cumulative = 0.0851748
smoothSolver:  Solving for omega, Initial residual = 0.042379, Final residual = 0.00189496, No Iterations 1
smoothSolver:  Solving for k, Initial residual = 0.0768771, Final residual = 0.00349432, No Iterations 1
ExecutionTime = 56.1039 s  ClockTime = 56 s

volFieldValue Uavg_propeller write:
    volAverage(propeller) of U = (-0.109163 0.0229709 -0.453561)

surfaceFieldValue phi_farField write:
    orientedSum(farField) of phi = -4.08694

surfaceFieldValue phi_top write:
    orientedSum(top) of phi = 4.16656

Time = 62s

--> FOAM Warning : 
[...]
smoothSolver:  Solving for Uy, Initial residual = 0.00290613, Final residual = 0.000267671, No Iterations 1
smoothSolver:  Solving for Uz, Initial residual = 0.00425742, Final residual = 0.00038724, No Iterations 1
DICPCG:  Solving for p, Initial residual = 0.0113094, Final residual = 0.000565135, No Iterations 20
time step continuity errors : sum local = 0.00010507, global = 2.30209e-05, cumulative = 0.116922
smoothSolver:  Solving for omega, Initial residual = 0.00203618, Final residual = 0.000151096, No Iterations 1
smoothSolver:  Solving for k, Initial residual = 0.0043359, Final residual = 0.000392565, No Iterations 1
ExecutionTime = 801.792 s  ClockTime = 802 s

volFieldValue Uavg_propeller write:
    volAverage(propeller) of U = (0.118437 -0.545728 -1.38079)

surfaceFieldValue phi_farField write:
    orientedSum(farField) of phi = 0.648909

surfaceFieldValue phi_top write:
    orientedSum(top) of phi = -0.647804

Time = 983s

smoothSolver:  Solving for Ux, Initial residual = 0.00385305, Final residual = 0.0003809, No Iterations 1
smoothSolver:  Solving for Uy, Initial residual = 0.00289625, Final residual = 0.00026696, No Iterations 1
smoothSolver:  Solving for Uz, Initial residual = 0.00427146, Final residual = 0.000389245, No Iterations 1
DICPCG:  Solving for p, Initial residual = 0.01137, Final residual = 0.00050897, No Iterations 21
time step continuity errors : sum local = 9.39536e-05, global = 1.94917e-05, cumulative = 0.116941
smoothSolver:  Solving for omega, Initial residual = 0.00202885, Final residual = 0.0001508, No Iterations 1
smoothSolver:  Solving for k, Initial residual = 0.00432475, Final residual = 0.000391986, No Iterations 1
ExecutionTime = 802.548 s  ClockTime = 803 s

volFieldValue Uavg_propeller write:
    volAverage(propeller) of U = (0.118497 -0.545064 -1.38093)

surfaceFieldValue phi_farField write:
    orientedSum(farField) of phi = 0.641124

surfaceFieldValue phi_top write:
    orientedSum(top) of phi = -0.640188

Time = 984s

smoothSolver:  Solving for Ux, Initial residual = 0.00384163, Final residual = 0.000379938, No Iterations 1
smoothSolver:  Solving for Uy, Initial residual = 0.00288591, Final residual = 0.000266208, No Iterations 1
smoothSolver:  Solving for Uz, Initial residual = 0.00428447, Final residual = 0.000391223, No Iterations 1
DICPCG:  Solving for p, Initial residual = 0.0113829, Final residual = 0.00051022, No Iterations 21
time step continuity errors : sum local = 9.31457e-05, global = 1.95325e-05, cumulative = 0.116961
smoothSolver:  Solving for omega, Initial residual = 0.00202288, Final residual = 0.000150463, No Iterations 1
smoothSolver:  Solving for k, Initial residual = 0.00431547, Final residual = 0.000391431, No Iterations 1
ExecutionTime = 803.275 s  ClockTime = 803 s

volFieldValue Uavg_propeller write:
    volAverage(propeller) of U = (0.118574 -0.544372 -1.38108)

surfaceFieldValue phi_farField write:
    orientedSum(farField) of phi = 0.633443

surfaceFieldValue phi_top write:
    orientedSum(top) of phi = -0.632505

Time = 985s

smoothSolver:  Solving for Ux, Initial residual = 0.00383075, Final residual = 0.000378964, No Iterations 1
smoothSolver:  Solving for Uy, Initial residual = 0.00287562, Final residual = 0.000265477, No Iterations 1
smoothSolver:  Solving for Uz, Initial residual = 0.00429654, Final residual = 0.000393193, No Iterations 1
DICPCG:  Solving for p, Initial residual = 0.0113689, Final residual = 0.000512546, No Iterations 21
time step continuity errors : sum local = 9.27655e-05, global = 1.95087e-05, cumulative = 0.11698
smoothSolver:  Solving for omega, Initial residual = 0.00201423, Final residual = 0.00015021, No Iterations 1
smoothSolver:  Solving for k, Initial residual = 0.00430453, Final residual = 0.000390819, No Iterations 1
ExecutionTime = 804.012 s  ClockTime = 804 s

volFieldValue Uavg_propeller write:
    volAverage(propeller) of U = (0.118668 -0.543654 -1.38124)

surfaceFieldValue phi_farField write:
    orientedSum(farField) of phi = 0.625812

surfaceFieldValue phi_top write:
    orientedSum(top) of phi = -0.624876

Time = 986s

smoothSolver:  Solving for Ux, Initial residual = 0.00381957, Final residual = 0.000377984, No Iterations 1
smoothSolver:  Solving for Uy, Initial residual = 0.00286531, Final residual = 0.000264758, No Iterations 1
smoothSolver:  Solving for Uz, Initial residual = 0.00431028, Final residual = 0.000395257, No Iterations 1
DICPCG:  Solving for p, Initial residual = 0.011395, Final residual = 0.000521621, No Iterations 21
time step continuity errors : sum local = 9.37743e-05, global = 1.9476e-05, cumulative = 0.117
smoothSolver:  Solving for omega, Initial residual = 0.00200715, Final residual = 0.000149906, No Iterations 1
smoothSolver:  Solving for k, Initial residual = 0.00429396, Final residual = 0.000390239, No Iterations 1
ExecutionTime = 804.799 s  ClockTime = 805 s

volFieldValue Uavg_propeller write:
    volAverage(propeller) of U = (0.118778 -0.54291 -1.3814)

surfaceFieldValue phi_farField write:
    orientedSum(farField) of phi = 0.618209

surfaceFieldValue phi_top write:
    orientedSum(top) of phi = -0.617274

Time = 987s

smoothSolver:  Solving for Ux, Initial residual = 0.0038089, Final residual = 0.000377013, No Iterations 1
smoothSolver:  Solving for Uy, Initial residual = 0.00285526, Final residual = 0.000264096, No Iterations 1
smoothSolver:  Solving for Uz, Initial residual = 0.0043249, Final residual = 0.000397424, No Iterations 1
DICPCG:  Solving for p, Initial residual = 0.0114349, Final residual = 0.000535215, No Iterations 21
time step continuity errors : sum local = 9.5736e-05, global = 1.9399e-05, cumulative = 0.117019
smoothSolver:  Solving for omega, Initial residual = 0.00199984, Final residual = 0.000149663, No Iterations 1
smoothSolver:  Solving for k, Initial residual = 0.00428239, Final residual = 0.000389498, No Iterations 1
ExecutionTime = 805.548 s  ClockTime = 806 s

volFieldValue Uavg_propeller write:
    volAverage(propeller) of U = (0.118904 -0.542141 -1.38156)

surfaceFieldValue phi_farField write:
    orientedSum(farField) of phi = 0.610638

surfaceFieldValue phi_top write:
    orientedSum(top) of phi = -0.609706

Time = 988s

smoothSolver:  Solving for Ux, Initial residual = 0.00379851, Final residual = 0.000376059, No Iterations 1
smoothSolver:  Solving for Uy, Initial residual = 0.00284531, Final residual = 0.000263415, No Iterations 1
smoothSolver:  Solving for Uz, Initial residual = 0.00434105, Final residual = 0.000399707, No Iterations 1
DICPCG:  Solving for p, Initial residual = 0.0115147, Final residual = 0.000544766, No Iterations 21
time step continuity errors : sum local = 9.67152e-05, global = 1.92219e-05, cumulative = 0.117039
smoothSolver:  Solving for omega, Initial residual = 0.00199173, Final residual = 0.000149336, No Iterations 1
smoothSolver:  Solving for k, Initial residual = 0.00427271, Final residual = 0.000388842, No Iterations 1
ExecutionTime = 806.269 s  ClockTime = 806 s

volFieldValue Uavg_propeller write:
    volAverage(propeller) of U = (0.119044 -0.541348 -1.38173)

surfaceFieldValue phi_farField write:
    orientedSum(farField) of phi = 0.603096

surfaceFieldValue phi_top write:
    orientedSum(top) of phi = -0.602173

Time = 989s

smoothSolver:  Solving for Ux, Initial residual = 0.00378815, Final residual = 0.000375122, No Iterations 1
smoothSolver:  Solving for Uy, Initial residual = 0.00283613, Final residual = 0.000262803, No Iterations 1
smoothSolver:  Solving for Uz, Initial residual = 0.00435784, Final residual = 0.000402074, No Iterations 1
DICPCG:  Solving for p, Initial residual = 0.0115207, Final residual = 0.000555544, No Iterations 21
time step continuity errors : sum local = 9.7494e-05, global = 1.89359e-05, cumulative = 0.117057
smoothSolver:  Solving for omega, Initial residual = 0.00198422, Final residual = 0.000148981, No Iterations 1
smoothSolver:  Solving for k, Initial residual = 0.00426139, Final residual = 0.00038814, No Iterations 1
ExecutionTime = 807.045 s  ClockTime = 807 s

volFieldValue Uavg_propeller write:
    volAverage(propeller) of U = (0.119199 -0.540532 -1.3819)

surfaceFieldValue phi_farField write:
    orientedSum(farField) of phi = 0.5956

surfaceFieldValue phi_top write:
    orientedSum(top) of phi = -0.594691

Time = 990s

smoothSolver:  Solving for Ux, Initial residual = 0.00377726, Final residual = 0.000374159, No Iterations 1
smoothSolver:  Solving for Uy, Initial residual = 0.00282623, Final residual = 0.000262142, No Iterations 1
smoothSolver:  Solving for Uz, Initial residual = 0.00437364, Final residual = 0.000404474, No Iterations 1
DICPCG:  Solving for p, Initial residual = 0.0115417, Final residual = 0.000565167, No Iterations 21
time step continuity errors : sum local = 9.84296e-05, global = 1.8811e-05, cumulative = 0.117076
smoothSolver:  Solving for omega, Initial residual = 0.001976, Final residual = 0.000148629, No Iterations 1
smoothSolver:  Solving for k, Initial residual = 0.00425032, Final residual = 0.000387535, No Iterations 1
ExecutionTime = 807.882 s  ClockTime = 808 s

volFieldValue Uavg_propeller write:
    volAverage(propeller) of U = (0.119369 -0.539695 -1.38207)

surfaceFieldValue phi_farField write:
    orientedSum(farField) of phi = 0.588127

surfaceFieldValue phi_top write:
    orientedSum(top) of phi = -0.587224

Time = 991s

smoothSolver:  Solving for Ux, Initial residual = 0.00376597, Final residual = 0.0003732, No Iterations 1
smoothSolver:  Solving for Uy, Initial residual = 0.00281669, Final residual = 0.000261515, No Iterations 1
smoothSolver:  Solving for Uz, Initial residual = 0.00438967, Final residual = 0.000406895, No Iterations 1
DICPCG:  Solving for p, Initial residual = 0.0117952, Final residual = 0.000573218, No Iterations 21
time step continuity errors : sum local = 9.86293e-05, global = 1.90811e-05, cumulative = 0.117095
smoothSolver:  Solving for omega, Initial residual = 0.00196771, Final residual = 0.000148405, No Iterations 1
smoothSolver:  Solving for k, Initial residual = 0.00423845, Final residual = 0.000386701, No Iterations 1
ExecutionTime = 808.655 s  ClockTime = 809 s

volFieldValue Uavg_propeller write:
    volAverage(propeller) of U = (0.119553 -0.538838 -1.38225)

surfaceFieldValue phi_farField write:
    orientedSum(farField) of phi = 0.580705

surfaceFieldValue phi_top write:
    orientedSum(top) of phi = -0.579789

Time = 992s

smoothSolver:  Solving for Ux, Initial residual = 0.00375448, Final residual = 0.000372238, No Iterations 1
smoothSolver:  Solving for Uy, Initial residual = 0.00280715, Final residual = 0.000260875, No Iterations 1
smoothSolver:  Solving for Uz, Initial residual = 0.00440393, Final residual = 0.000409202, No Iterations 1
DICPCG:  Solving for p, Initial residual = 0.0119735, Final residual = 0.000571903, No Iterations 21
time step continuity errors : sum local = 9.73696e-05, global = 1.94768e-05, cumulative = 0.117115
smoothSolver:  Solving for omega, Initial residual = 0.00195838, Final residual = 0.000148037, No Iterations 1
smoothSolver:  Solving for k, Initial residual = 0.00422776, Final residual = 0.000386142, No Iterations 1
ExecutionTime = 809.415 s  ClockTime = 810 s

volFieldValue Uavg_propeller write:
    volAverage(propeller) of U = (0.119752 -0.537962 -1.38243)

surfaceFieldValue phi_farField write:
    orientedSum(farField) of phi = 0.573327

surfaceFieldValue phi_top write:
    orientedSum(top) of phi = -0.572392

Time = 993s

smoothSolver:  Solving for Ux, Initial residual = 0.00374403, Final residual = 0.000371305, No Iterations 1
smoothSolver:  Solving for Uy, Initial residual = 0.00279826, Final residual = 0.000260248, No Iterations 1
smoothSolver:  Solving for Uz, Initial residual = 0.00441925, Final residual = 0.000411479, No Iterations 1
DICPCG:  Solving for p, Initial residual = 0.0119573, Final residual = 0.000566641, No Iterations 21
time step continuity errors : sum local = 9.53645e-05, global = 1.96093e-05, cumulative = 0.117134
smoothSolver:  Solving for omega, Initial residual = 0.00195053, Final residual = 0.0001478, No Iterations 1
smoothSolver:  Solving for k, Initial residual = 0.00421722, Final residual = 0.000385368, No Iterations 1
ExecutionTime = 810.202 s  ClockTime = 810 s

volFieldValue Uavg_propeller write:
    volAverage(propeller) of U = (0.119964 -0.537068 -1.38262)

surfaceFieldValue phi_farField write:
    orientedSum(farField) of phi = 0.565979

surfaceFieldValue phi_top write:
    orientedSum(top) of phi = -0.565037

Time = 994s

smoothSolver:  Solving for Ux, Initial residual = 0.00373397, Final residual = 0.000370383, No Iterations 1
smoothSolver:  Solving for Uy, Initial residual = 0.00278978, Final residual = 0.000259645, No Iterations 1
smoothSolver:  Solving for Uz, Initial residual = 0.00443434, Final residual = 0.000413769, No Iterations 1
DICPCG:  Solving for p, Initial residual = 0.0120551, Final residual = 0.000566144, No Iterations 21
time step continuity errors : sum local = 9.43256e-05, global = 1.9665e-05, cumulative = 0.117154
smoothSolver:  Solving for omega, Initial residual = 0.00194361, Final residual = 0.000147426, No Iterations 1
smoothSolver:  Solving for k, Initial residual = 0.00420724, Final residual = 0.00038469, No Iterations 1
ExecutionTime = 811.007 s  ClockTime = 811 s

volFieldValue Uavg_propeller write:
    volAverage(propeller) of U = (0.12019 -0.536156 -1.38281)

surfaceFieldValue phi_farField write:
    orientedSum(farField) of phi = 0.558673

surfaceFieldValue phi_top write:
    orientedSum(top) of phi = -0.557729

Time = 995s

smoothSolver:  Solving for Ux, Initial residual = 0.00372369, Final residual = 0.000369431, No Iterations 1
smoothSolver:  Solving for Uy, Initial residual = 0.00278018, Final residual = 0.000259027, No Iterations 1
smoothSolver:  Solving for Uz, Initial residual = 0.00444832, Final residual = 0.000416048, No Iterations 1
DICPCG:  Solving for p, Initial residual = 0.0120265, Final residual = 0.000570877, No Iterations 21
time step continuity errors : sum local = 9.42782e-05, global = 1.95321e-05, cumulative = 0.117174
smoothSolver:  Solving for omega, Initial residual = 0.00193227, Final residual = 0.000146947, No Iterations 1
smoothSolver:  Solving for k, Initial residual = 0.00419521, Final residual = 0.000384007, No Iterations 1
ExecutionTime = 811.785 s  ClockTime = 812 s

volFieldValue Uavg_propeller write:
    volAverage(propeller) of U = (0.120429 -0.535226 -1.383)

surfaceFieldValue phi_farField write:
    orientedSum(farField) of phi = 0.551397

surfaceFieldValue phi_top write:
    orientedSum(top) of phi = -0.550459

Time = 996s

smoothSolver:  Solving for Ux, Initial residual = 0.00371324, Final residual = 0.000368487, No Iterations 1
smoothSolver:  Solving for Uy, Initial residual = 0.00277085, Final residual = 0.0002584, No Iterations 1
smoothSolver:  Solving for Uz, Initial residual = 0.00446467, Final residual = 0.000418416, No Iterations 1
DICPCG:  Solving for p, Initial residual = 0.0121103, Final residual = 0.000579328, No Iterations 21
time step continuity errors : sum local = 9.48565e-05, global = 1.93216e-05, cumulative = 0.117193
smoothSolver:  Solving for omega, Initial residual = 0.00192397, Final residual = 0.000146546, No Iterations 1
smoothSolver:  Solving for k, Initial residual = 0.00418486, Final residual = 0.000383332, No Iterations 1
ExecutionTime = 812.522 s  ClockTime = 813 s

volFieldValue Uavg_propeller write:
    volAverage(propeller) of U = (0.120682 -0.534278 -1.3832)

surfaceFieldValue phi_farField write:
    orientedSum(farField) of phi = 0.544163

surfaceFieldValue phi_top write:
    orientedSum(top) of phi = -0.543236

Time = 997s

smoothSolver:  Solving for Ux, Initial residual = 0.00370321, Final residual = 0.000367533, No Iterations 1
smoothSolver:  Solving for Uy, Initial residual = 0.00276199, Final residual = 0.000257835, No Iterations 1
smoothSolver:  Solving for Uz, Initial residual = 0.00448125, Final residual = 0.000420875, No Iterations 1
DICPCG:  Solving for p, Initial residual = 0.0122264, Final residual = 0.000588371, No Iterations 21
time step continuity errors : sum local = 9.58012e-05, global = 1.90795e-05, cumulative = 0.117212
smoothSolver:  Solving for omega, Initial residual = 0.00191514, Final residual = 0.000146215, No Iterations 1
smoothSolver:  Solving for k, Initial residual = 0.00417524, Final residual = 0.000382721, No Iterations 1
ExecutionTime = 813.295 s  ClockTime = 813 s

volFieldValue Uavg_propeller write:
    volAverage(propeller) of U = (0.120949 -0.533313 -1.3834)

surfaceFieldValue phi_farField write:
    orientedSum(farField) of phi = 0.536965

surfaceFieldValue phi_top write:
    orientedSum(top) of phi = -0.536049

Time = 998s

smoothSolver:  Solving for Ux, Initial residual = 0.00369263, Final residual = 0.000366573, No Iterations 1
smoothSolver:  Solving for Uy, Initial residual = 0.00275317, Final residual = 0.000257236, No Iterations 1
smoothSolver:  Solving for Uz, Initial residual = 0.00449662, Final residual = 0.00042333, No Iterations 1
DICPCG:  Solving for p, Initial residual = 0.012234, Final residual = 0.000599119, No Iterations 21
time step continuity errors : sum local = 9.66305e-05, global = 1.88604e-05, cumulative = 0.117231
smoothSolver:  Solving for omega, Initial residual = 0.00190463, Final residual = 0.000145828, No Iterations 1
smoothSolver:  Solving for k, Initial residual = 0.00416188, Final residual = 0.00038197, No Iterations 1
ExecutionTime = 814.043 s  ClockTime = 814 s

volFieldValue Uavg_propeller write:
    volAverage(propeller) of U = (0.12123 -0.53233 -1.3836)

surfaceFieldValue phi_farField write:
    orientedSum(farField) of phi = 0.529804

surfaceFieldValue phi_top write:
    orientedSum(top) of phi = -0.528899

Time = 999s

smoothSolver:  Solving for Ux, Initial residual = 0.00368191, Final residual = 0.000365583, No Iterations 1
smoothSolver:  Solving for Uy, Initial residual = 0.00274382, Final residual = 0.00025659, No Iterations 1
smoothSolver:  Solving for Uz, Initial residual = 0.00451399, Final residual = 0.000425796, No Iterations 1
DICPCG:  Solving for p, Initial residual = 0.012412, Final residual = 0.00061387, No Iterations 21
time step continuity errors : sum local = 9.78575e-05, global = 1.89353e-05, cumulative = 0.11725
smoothSolver:  Solving for omega, Initial residual = 0.00189467, Final residual = 0.000145385, No Iterations 1
smoothSolver:  Solving for k, Initial residual = 0.00415077, Final residual = 0.000381228, No Iterations 1
ExecutionTime = 814.843 s  ClockTime = 815 s

volFieldValue Uavg_propeller write:
    volAverage(propeller) of U = (0.121525 -0.531332 -1.38381)

surfaceFieldValue phi_farField write:
    orientedSum(farField) of phi = 0.522694

surfaceFieldValue phi_top write:
    orientedSum(top) of phi = -0.521785

Time = 1000s

smoothSolver:  Solving for Ux, Initial residual = 0.0036713, Final residual = 0.000364617, No Iterations 1
smoothSolver:  Solving for Uy, Initial residual = 0.0027356, Final residual = 0.000256006, No Iterations 1
smoothSolver:  Solving for Uz, Initial residual = 0.00452855, Final residual = 0.000428049, No Iterations 1
DICPCG:  Solving for p, Initial residual = 0.0124611, Final residual = 0.00061787, No Iterations 21
time step continuity errors : sum local = 9.73927e-05, global = 1.90127e-05, cumulative = 0.117269
smoothSolver:  Solving for omega, Initial residual = 0.00188552, Final residual = 0.000144861, No Iterations 1
smoothSolver:  Solving for k, Initial residual = 0.0041404, Final residual = 0.000380602, No Iterations 1
ExecutionTime = 816.573 s  ClockTime = 817 s

volFieldValue Uavg_propeller write:
    volAverage(propeller) of U = (0.121833 -0.530318 -1.38402)

surfaceFieldValue phi_farField write:
    orientedSum(farField) of phi = 0.515627

surfaceFieldValue phi_top write:
    orientedSum(top) of phi = -0.514715

End

