/*---------------------------------------------------------------------------*\
  =========                 |
  \\      /  F ield         | OpenFOAM: The Open Source CFD Toolbox
   \\    /   O peration     | Website:  https://openfoam.org
    \\  /    A nd           | Version:  13
     \\/     M anipulation  |
\*---------------------------------------------------------------------------*/
Build  : 13-cde978a97c93
Exec   : foamRun
Date   : Mar 05 2026
Time   : 11:17:48
Host   : "JOO-DESKTOP"
PID    : 26227
I/O    : uncollated
Case   : /home/joo/OpenFOAM/joo-13/run/trackB_propellerIGE_v13/cases/sweep_baselineHover/hR2
nProcs : 1
sigFpe : Enabling floating point exception trapping (FOAM_SIGFPE).
fileModificationChecking : Monitoring run-time modified files using timeStampMaster (fileModificationSkew 10)
allowSystemOperations : Allowing user-supplied system call operations

// * * * * * * * * * * * * * * * * * * * * * * * * * * * * * * * * * * * * * //
Create time

Create mesh for time = 0

Selecting solver incompressibleFluid
Selecting viscosity model constant
Selecting turbulence model type RAS
    Selecting RAS turbulence model kOmegaSST
No MRF models present

Selecting patchDistMethod meshWave
Creating fvModels from "constant/fvModels"

Selecting finite volume model type propellerDisk
    Name: diskSource

SIMPLE: Convergence criteria found
        p: tolerance 0.0001
        U: tolerance 1e-05
        k: tolerance 1e-05
        omega: tolerance 1e-05


SIMPLE: Operating solver in steady-state mode with 1 outer corrector
SIMPLE: Operating solver in SIMPLE mode



Starting time loop

Reading set description:
    line

volFieldValue Uavg_propeller read:
    number of cells = 104
    volume = 0.0126953
    operation = volAverage

surfaceFieldValue phi_farField read:
    number of faces = 24576
    area = 48
    operation = orientedSum

surfaceFieldValue phi_top read:
    number of faces = 4096
    area = 16
    operation = orientedSum

volFieldValue Uavg_propeller write:
    volAverage(propeller) of U = (0 0 -0.01)

surfaceFieldValue phi_farField write:
    orientedSum(farField) of phi = 0

surfaceFieldValue phi_top write:
    orientedSum(top) of phi = 0

Time = 1s

--> FOAM Warning : 
    From function void Foam::Function1s::Table<Type>::checkX(Foam::scalar) const [with Type = Foam::Vector2D<double>; Foam::scalar = double]
    in file lnInclude/Table.C at line 107
    "value (-97.489) underflow"

smoothSolver:  Solving for Ux, Initial residual = 1, Final residual = 0.0295821, No Iterations 1
smoothSolver:  Solving for Uy, Initial residual = 1, Final residual = 0.0295821, No Iterations 1
smoothSolver:  Solving for Uz, Initial residual = 1, Final residual = 0.0301259, No Iterations 1
DICPCG:  Solving for p, Initial residual = 1, Final residual = 0.0497507, No Iterations 26
time step continuity errors : sum local = 0.0398509, global = -0.00123888, cumulative = -0.00123888
smoothSolver:  Solving for omega, Initial residual = 0.0837531, Final residual = 0.00353011, No Iterations 1
smoothSolver:  Solving for k, Initial residual = 1, Final residual = 0.041649, No Iterations 1
ExecutionTime = 3.74146 s  ClockTime = 3 s

volFieldValue Uavg_propeller write:
    volAverage(propeller) of U = (-0.00161243 -0.00136223 -83.1334)

surfaceFieldValue phi_farField write:
    orientedSum(farField) of phi = 0.111404

surfaceFieldValue phi_top write:
    orientedSum(top) of phi = -0.170871

Time = 2s

--> FOAM Warning : 
    From function void Foam::Function1s::Table<Type>::checkX(Foam::scalar) const [with Type = Foam::Vector2D<double>; Foam::scalar = double]
    in file lnInclude/Table.C at line 107
    "value (27.7111) overflow"

--> FOAM Warning : 
    From function void Foam::Function1s::Table<Type>::checkX(Foam::scalar) const [with Type = Foam::Vector2D<double>; Foam::scalar = double]
    in file lnInclude/Table.C at line 107
    "value (27.7099) overflow"

smoothSolver:  Solving for Ux, Initial residual = 0.254957, Final residual = 0.0127379, No Iterations 1
smoothSolver:  Solving for Uy, Initial residual = 0.254958, Final residual = 0.0124742, No Iterations 1
smoothSolver:  Solving for Uz, Initial residual = 0.263548, Final residual = 0.0134399, No Iterations 1
DICPCG:  Solving for p, Initial residual = 0.976094, Final residual = 0.0482434, No Iterations 33
time step continuity errors : sum local = 0.0331763, global = 0.00279056, cumulative = 0.00155168
smoothSolver:  Solving for omega, Initial residual = 0.028754, Final residual = 0.00153375, No Iterations 1
smoothSolver:  Solving for k, Initial residual = 0.0797893, Final residual = 0.00412569, No Iterations 1
ExecutionTime = 4.55478 s  ClockTime = 4 s

volFieldValue Uavg_propeller write:
    volAverage(propeller) of U = (0.0332256 -0.00214315 -57.1911)

surfaceFieldValue phi_farField write:
    orientedSum(farField) of phi = 0.74053

surfaceFieldValue phi_top write:
    orientedSum(top) of phi = -0.606583

Time = 3s

--> FOAM Warning : 
    From function void Foam::Function1s::Table<Type>::checkX(Foam::scalar) const [with Type = Foam::Vector2D<double>; Foam::scalar = double]
    in file lnInclude/Table.C at line 107
    "value (19.0637) overflow"

--> FOAM Warning : 
    From function void Foam::Function1s::Table<Type>::checkX(Foam::scalar) const [with Type = Foam::Vector2D<double>; Foam::scalar = double]
    in file lnInclude/Table.C at line 107
    "value (19.0619) overflow"

smoothSolver:  Solving for Ux, Initial residual = 0.221141, Final residual = 0.0101131, No Iterations 1
smoothSolver:  Solving for Uy, Initial residual = 0.221061, Final residual = 0.00982337, No Iterations 1
smoothSolver:  Solving for Uz, Initial residual = 0.23096, Final residual = 0.00971555, No Iterations 1
DICPCG:  Solving for p, Initial residual = 0.163095, Final residual = 0.00787428, No Iterations 31
time step continuity errors : sum local = 0.0238765, global = 0.000970676, cumulative = 0.00252236
smoothSolver:  Solving for omega, Initial residual = 0.0458798, Final residual = 0.00252844, No Iterations 1
smoothSolver:  Solving for k, Initial residual = 0.0865178, Final residual = 0.00449198, No Iterations 1
ExecutionTime = 5.29385 s  ClockTime = 5 s

volFieldValue Uavg_propeller write:
    volAverage(propeller) of U = (0.0445768 -0.0226082 -34.8779)

surfaceFieldValue phi_farField write:
    orientedSum(farField) of phi = 0.50317

surfaceFieldValue phi_top write:
    orientedSum(top) of phi = -0.456578

Time = 4s

--> FOAM Warning : 
    From function void Foam::Function1s::Table<Type>::checkX(Foam::scalar) const [with Type = Foam::Vector2D<double>; Foam::scalar = double]
    in file lnInclude/Table.C at line 107
    "value (11.626) overflow"

--> FOAM Warning : 
    From function void Foam::Function1s::Table<Type>::checkX(Foam::scalar) const [with Type = Foam::Vector2D<double>; Foam::scalar = double]
    in file lnInclude/Table.C at line 107
    "value (11.6229) overflow"

smoothSolver:  Solving for Ux, Initial residual = 0.211635, Final residual = 0.0110149, No Iterations 1
smoothSolver:  Solving for Uy, Initial residual = 0.211456, Final residual = 0.0107907, No Iterations 1
smoothSolver:  Solving for Uz, Initial residual = 0.213152, Final residual = 0.00959995, No Iterations 1
DICPCG:  Solving for p, Initial residual = 0.543953, Final residual = 0.0267918, No Iterations 24
time step continuity errors : sum local = 0.0198411, global = 0.00585902, cumulative = 0.00838137
smoothSolver:  Solving for omega, Initial residual = 0.0533827, Final residual = 0.00293412, No Iterations 1
smoothSolver:  Solving for k, Initial residual = 0.0929566, Final residual = 0.00482709, No Iterations 1
ExecutionTime = 5.97074 s  ClockTime = 6 s

volFieldValue Uavg_propeller write:
    volAverage(propeller) of U = (0.0506549 -0.0508903 -21.4161)

surfaceFieldValue phi_farField write:
    orientedSum(farField) of phi = 0.846093

surfaceFieldValue phi_top write:
    orientedSum(top) of phi = -0.56486

Time = 5s

--> FOAM Warning : 
    From function void Foam::Function1s::Table<Type>::checkX(Foam::scalar) const [with Type = Foam::Vector2D<double>; Foam::scalar = double]
    in file lnInclude/Table.C at line 107
    "value (7.1387) overflow"

--> FOAM Warning : 
    From function void Foam::Function1s::Table<Type>::checkX(Foam::scalar) const [with Type = Foam::Vector2D<double>; Foam::scalar = double]
    in file lnInclude/Table.C at line 107
    "value (7.13378) overflow"

smoothSolver:  Solving for Ux, Initial residual = 0.159396, Final residual = 0.00846791, No Iterations 1
smoothSolver:  Solving for Uy, Initial residual = 0.159308, Final residual = 0.00827229, No Iterations 1
smoothSolver:  Solving for Uz, Initial residual = 0.179321, Final residual = 0.00820387, No Iterations 1
DICPCG:  Solving for p, Initial residual = 0.0824763, Final residual = 0.00378881, No Iterations 28
time step continuity errors : sum local = 0.0254209, global = 0.00662877, cumulative = 0.0150101
smoothSolver:  Solving for omega, Initial residual = 0.0603553, Final residual = 0.00327917, No Iterations 1
smoothSolver:  Solving for k, Initial residual = 0.0966379, Final residual = 0.00499569, No Iterations 1
ExecutionTime = 6.7623 s  ClockTime = 6 s

volFieldValue Uavg_propeller write:
    volAverage(propeller) of U = (0.0809591 -0.0947445 -17.1105)

surfaceFieldValue phi_farField write:
    orientedSum(farField) of phi = 1.02182

surfaceFieldValue phi_top write:
    orientedSum(top) of phi = -0.703641

Time = 6s

--> FOAM Warning : 
    From function void Foam::Function1s::Table<Type>::checkX(Foam::scalar) const [with Type = Foam::Vector2D<double>; Foam::scalar = double]
    in file lnInclude/Table.C at line 107
    "value (5.70352) overflow"

--> FOAM Warning : 
    From function void Foam::Function1s::Table<Type>::checkX(Foam::scalar) const [with Type = Foam::Vector2D<double>; Foam::scalar = double]
    in file lnInclude/Table.C at line 107
    "value (5.69736) overflow"

smoothSolver:  Solving for Ux, Initial residual = 0.111238, Final residual = 0.00597169, No Iterations 1
smoothSolver:  Solving for Uy, Initial residual = 0.11125, Final residual = 0.00582942, No Iterations 1
smoothSolver:  Solving for Uz, Initial residual = 0.127337, Final residual = 0.006126, No Iterations 1
DICPCG:  Solving for p, Initial residual = 0.0360051, Final residual = 0.00167343, No Iterations 30
time step continuity errors : sum local = 0.0303861, global = 0.00606279, cumulative = 0.0210729
smoothSolver:  Solving for omega, Initial residual = 0.0597114, Final residual = 0.00324141, No Iterations 1
smoothSolver:  Solving for k, Initial residual = 0.105575, Final residual = 0.00545189, No Iterations 1
ExecutionTime = 7.54651 s  ClockTime = 7 s

volFieldValue Uavg_propeller write:
    volAverage(propeller) of U = (0.101447 -0.0926192 -17.6928)

surfaceFieldValue phi_farField write:
    orientedSum(farField) of phi = 1.03989

surfaceFieldValue phi_top write:
    orientedSum(top) of phi = -0.748875

Time = 7s

--> FOAM Warning : 
    From function void Foam::Function1s::Table<Type>::checkX(Foam::scalar) const [with Type = Foam::Vector2D<double>; Foam::scalar = double]
    in file lnInclude/Table.C at line 107
    "value (5.89759) overflow"

--> FOAM Warning : 
    From function void Foam::Function1s::Table<Type>::checkX(Foam::scalar) const [with Type = Foam::Vector2D<double>; Foam::scalar = double]
    in file lnInclude/Table.C at line 107
    "value (5.89164) overflow"

smoothSolver:  Solving for Ux, Initial residual = 0.0765775, Final residual = 0.00411976, No Iterations 1
smoothSolver:  Solving for Uy, Initial residual = 0.0766861, Final residual = 0.00405992, No Iterations 1
smoothSolver:  Solving for Uz, Initial residual = 0.0756759, Final residual = 0.00383786, No Iterations 1
DICPCG:  Solving for p, Initial residual = 0.0190053, Final residual = 0.000800702, No Iterations 31
time step continuity errors : sum local = 0.0267156, global = 0.00531921, cumulative = 0.0263921
smoothSolver:  Solving for omega, Initial residual = 0.0510925, Final residual = 0.00286294, No Iterations 1
smoothSolver:  Solving for k, Initial residual = 0.11339, Final residual = 0.00587705, No Iterations 1
ExecutionTime = 8.31041 s  ClockTime = 8 s

volFieldValue Uavg_propeller write:
    volAverage(propeller) of U = (0.12239 -0.0667625 -18.5389)

surfaceFieldValue phi_farField write:
    orientedSum(farField) of phi = 1.01357

surfaceFieldValue phi_top write:
    orientedSum(top) of phi = -0.758244

Time = 8s

--> FOAM Warning : 
    From function void Foam::Function1s::Table<Type>::checkX(Foam::scalar) const [with Type = Foam::Vector2D<double>; Foam::scalar = double]
    in file lnInclude/Table.C at line 107
    "value (6.17963) overflow"

--> FOAM Warning : 
    From function void Foam::Function1s::Table<Type>::checkX(Foam::scalar) const [with Type = Foam::Vector2D<double>; Foam::scalar = double]
    in file lnInclude/Table.C at line 107
    "value (6.17395) overflow"

smoothSolver:  Solving for Ux, Initial residual = 0.0816523, Final residual = 0.00418505, No Iterations 1
smoothSolver:  Solving for Uy, Initial residual = 0.0818941, Final residual = 0.0042288, No Iterations 1
smoothSolver:  Solving for Uz, Initial residual = 0.0648555, Final residual = 0.0029699, No Iterations 1
DICPCG:  Solving for p, Initial residual = 0.0115563, Final residual = 0.000548237, No Iterations 29
time step continuity errors : sum local = 0.0257043, global = 0.0037634, cumulative = 0.0301555
smoothSolver:  Solving for omega, Initial residual = 0.0423552, Final residual = 0.00242876, No Iterations 1
smoothSolver:  Solving for k, Initial residual = 0.114728, Final residual = 0.00595448, No Iterations 1
ExecutionTime = 9.05896 s  ClockTime = 9 s

volFieldValue Uavg_propeller write:
    volAverage(propeller) of U = (0.126568 -0.02553 -17.7823)

surfaceFieldValue phi_farField write:
    orientedSum(farField) of phi = 1.01444

surfaceFieldValue phi_top write:
    orientedSum(top) of phi = -0.833794

Time = 9s

--> FOAM Warning : 
    From function void Foam::Function1s::Table<Type>::checkX(Foam::scalar) const [with Type = Foam::Vector2D<double>; Foam::scalar = double]
    in file lnInclude/Table.C at line 107
    "value (5.92742) overflow"

--> FOAM Warning : 
    From function void Foam::Function1s::Table<Type>::checkX(Foam::scalar) const [with Type = Foam::Vector2D<double>; Foam::scalar = double]
    in file lnInclude/Table.C at line 107
    "value (5.9215) overflow"

smoothSolver:  Solving for Ux, Initial residual = 0.0941768, Final residual = 0.0048109, No Iterations 1
smoothSolver:  Solving for Uy, Initial residual = 0.094436, Final residual = 0.00497104, No Iterations 1
smoothSolver:  Solving for Uz, Initial residual = 0.0722735, Final residual = 0.00310076, No Iterations 1
DICPCG:  Solving for p, Initial residual = 0.00981427, Final residual = 0.000477385, No Iterations 19
time step continuity errors : sum local = 0.0222476, global = 0.00472049, cumulative = 0.034876
smoothSolver:  Solving for omega, Initial residual = 0.0367784, Final residual = 0.00214455, No Iterations 1
smoothSolver:  Solving for k, Initial residual = 0.104851, Final residual = 0.00544335, No Iterations 1
ExecutionTime = 9.76882 s  ClockTime = 9 s

volFieldValue Uavg_propeller write:
    volAverage(propeller) of U = (0.11967 0.0144528 -15.3422)

surfaceFieldValue phi_farField write:
    orientedSum(farField) of phi = 1.01521

surfaceFieldValue phi_top write:
    orientedSum(top) of phi = -0.788623

Time = 10s

--> FOAM Warning : 
    From function void Foam::Function1s::Table<Type>::checkX(Foam::scalar) const [with Type = Foam::Vector2D<double>; Foam::scalar = double]
    in file lnInclude/Table.C at line 107
    "value (5.11406) overflow"

--> FOAM Warning : 
    From function void Foam::Function1s::Table<Type>::checkX(Foam::scalar) const [with Type = Foam::Vector2D<double>; Foam::scalar = double]
    in file lnInclude/Table.C at line 107
    "value (5.10719) overflow"

smoothSolver:  Solving for Ux, Initial residual = 0.096899, Final residual = 0.00498836, No Iterations 1
smoothSolver:  Solving for Uy, Initial residual = 0.0970432, Final residual = 0.00520042, No Iterations 1
smoothSolver:  Solving for Uz, Initial residual = 0.0678984, Final residual = 0.0029059, No Iterations 1
DICPCG:  Solving for p, Initial residual = 0.0103862, Final residual = 0.000498144, No Iterations 22
time step continuity errors : sum local = 0.0218185, global = -0.00574041, cumulative = 0.0291356
smoothSolver:  Solving for omega, Initial residual = 0.0340664, Final residual = 0.00200184, No Iterations 1
smoothSolver:  Solving for k, Initial residual = 0.09643, Final residual = 0.00501668, No Iterations 1
ExecutionTime = 10.516 s  ClockTime = 10 s

volFieldValue Uavg_propeller write:
    volAverage(propeller) of U = (0.106517 0.0446436 -12.0754)

surfaceFieldValue phi_farField write:
    orientedSum(farField) of phi = 0.489746

surfaceFieldValue phi_top write:
    orientedSum(top) of phi = -0.765285

Time = 11s

--> FOAM Warning : 
    From function void Foam::Function1s::Table<Type>::checkX(Foam::scalar) const [with Type = Foam::Vector2D<double>; Foam::scalar = double]
    in file lnInclude/Table.C at line 107
    "value (4.02515) overflow"

--> FOAM Warning : 
    From function void Foam::Function1s::Table<Type>::checkX(Foam::scalar) const [with Type = Foam::Vector2D<double>; Foam::scalar = double]
    in file lnInclude/Table.C at line 107
    "value (4.01643) overflow"

smoothSolver:  Solving for Ux, Initial residual = 0.0858484, Final residual = 0.0044512, No Iterations 1
smoothSolver:  Solving for Uy, Initial residual = 0.0859109, Final residual = 0.00460202, No Iterations 1
smoothSolver:  Solving for Uz, Initial residual = 0.0541938, Final residual = 0.00246532, No Iterations 1
DICPCG:  Solving for p, Initial residual = 0.0125537, Final residual = 0.000611506, No Iterations 28
time step continuity errors : sum local = 0.0214674, global = -0.00550147, cumulative = 0.0236342
smoothSolver:  Solving for omega, Initial residual = 0.0318708, Final residual = 0.00188123, No Iterations 1
smoothSolver:  Solving for k, Initial residual = 0.0872737, Final residual = 0.0045547, No Iterations 1
ExecutionTime = 11.2888 s  ClockTime = 11 s

volFieldValue Uavg_propeller write:
    volAverage(propeller) of U = (0.0909405 0.0608742 -9.02478)

surfaceFieldValue phi_farField write:
    orientedSum(farField) of phi = 0.49801

surfaceFieldValue phi_top write:
    orientedSum(top) of phi = -0.76208

Time = 12s

--> FOAM Warning : 
    From function void Foam::Function1s::Table<Type>::checkX(Foam::scalar) const [with Type = Foam::Vector2D<double>; Foam::scalar = double]
    in file lnInclude/Table.C at line 107
    "value (3.00826) overflow"

--> FOAM Warning : 
    From function void Foam::Function1s::Table<Type>::checkX(Foam::scalar) const [with Type = Foam::Vector2D<double>; Foam::scalar = double]
    in file lnInclude/Table.C at line 107
    "value (2.99659) overflow"

smoothSolver:  Solving for Ux, Initial residual = 0.0702729, Final residual = 0.00367184, No Iterations 1
smoothSolver:  Solving for Uy, Initial residual = 0.0701955, Final residual = 0.00367811, No Iterations 1
smoothSolver:  Solving for Uz, Initial residual = 0.0465506, Final residual = 0.00227636, No Iterations 1
DICPCG:  Solving for p, Initial residual = 0.0173972, Final residual = 0.000799622, No Iterations 29
time step continuity errors : sum local = 0.0179597, global = -0.00313545, cumulative = 0.0204987
smoothSolver:  Solving for omega, Initial residual = 0.030163, Final residual = 0.00178101, No Iterations 1
smoothSolver:  Solving for k, Initial residual = 0.0807376, Final residual = 0.0042241, No Iterations 1
ExecutionTime = 12.0206 s  ClockTime = 12 s

volFieldValue Uavg_propeller write:
    volAverage(propeller) of U = (0.0757295 0.0624125 -6.95718)

surfaceFieldValue phi_farField write:
    orientedSum(farField) of phi = 0.617765

surfaceFieldValue phi_top write:
    orientedSum(top) of phi = -0.768267

Time = 13s

--> FOAM Warning : 
    From function void Foam::Function1s::Table<Type>::checkX(Foam::scalar) const [with Type = Foam::Vector2D<double>; Foam::scalar = double]
    in file lnInclude/Table.C at line 107
    "value (2.31906) overflow"

--> FOAM Warning : 
    From function void Foam::Function1s::Table<Type>::checkX(Foam::scalar) const [with Type = Foam::Vector2D<double>; Foam::scalar = double]
    in file lnInclude/Table.C at line 107
    "value (2.30392) overflow"

smoothSolver:  Solving for Ux, Initial residual = 0.0588281, Final residual = 0.00310148, No Iterations 1
smoothSolver:  Solving for Uy, Initial residual = 0.0587661, Final residual = 0.00299593, No Iterations 1
smoothSolver:  Solving for Uz, Initial residual = 0.0521584, Final residual = 0.00260275, No Iterations 1
DICPCG:  Solving for p, Initial residual = 0.0262599, Final residual = 0.00121639, No Iterations 25
time step continuity errors : sum local = 0.0154996, global = -0.00183055, cumulative = 0.0186682
smoothSolver:  Solving for omega, Initial residual = 0.0289239, Final residual = 0.00170057, No Iterations 1
smoothSolver:  Solving for k, Initial residual = 0.0761115, Final residual = 0.00398301, No Iterations 1
ExecutionTime = 12.7267 s  ClockTime = 12 s

volFieldValue Uavg_propeller write:
    volAverage(propeller) of U = (0.0644521 0.0526405 -6.14808)

surfaceFieldValue phi_farField write:
    orientedSum(farField) of phi = 0.701025

surfaceFieldValue phi_top write:
    orientedSum(top) of phi = -0.788892

Time = 14s

--> FOAM Warning : 
    From function void Foam::Function1s::Table<Type>::checkX(Foam::scalar) const [with Type = Foam::Vector2D<double>; Foam::scalar = double]
    in file lnInclude/Table.C at line 107
    "value (2.04936) overflow"

--> FOAM Warning : 
    From function void Foam::Function1s::Table<Type>::checkX(Foam::scalar) const [with Type = Foam::Vector2D<double>; Foam::scalar = double]
    in file lnInclude/Table.C at line 107
    "value (2.03223) overflow"

smoothSolver:  Solving for Ux, Initial residual = 0.0534425, Final residual = 0.00281918, No Iterations 1
smoothSolver:  Solving for Uy, Initial residual = 0.0533905, Final residual = 0.00268265, No Iterations 1
smoothSolver:  Solving for Uz, Initial residual = 0.0578957, Final residual = 0.00275856, No Iterations 1
DICPCG:  Solving for p, Initial residual = 0.0401313, Final residual = 0.00192233, No Iterations 15
time step continuity errors : sum local = 0.0148406, global = -0.00107612, cumulative = 0.017592
smoothSolver:  Solving for omega, Initial residual = 0.0279209, Final residual = 0.00163235, No Iterations 1
smoothSolver:  Solving for k, Initial residual = 0.0717875, Final residual = 0.00375129, No Iterations 1
ExecutionTime = 13.3954 s  ClockTime = 13 s

volFieldValue Uavg_propeller write:
    volAverage(propeller) of U = (0.0604671 0.0377333 -6.37469)

surfaceFieldValue phi_farField write:
    orientedSum(farField) of phi = 0.788334

surfaceFieldValue phi_top write:
    orientedSum(top) of phi = -0.839988

Time = 15s

--> FOAM Warning : 
    From function void Foam::Function1s::Table<Type>::checkX(Foam::scalar) const [with Type = Foam::Vector2D<double>; Foam::scalar = double]
    in file lnInclude/Table.C at line 107
    "value (2.1249) overflow"

--> FOAM Warning : 
    From function void Foam::Function1s::Table<Type>::checkX(Foam::scalar) const [with Type = Foam::Vector2D<double>; Foam::scalar = double]
    in file lnInclude/Table.C at line 107
    "value (2.10837) overflow"

smoothSolver:  Solving for Ux, Initial residual = 0.0490297, Final residual = 0.00260427, No Iterations 1
smoothSolver:  Solving for Uy, Initial residual = 0.0489582, Final residual = 0.00249518, No Iterations 1
smoothSolver:  Solving for Uz, Initial residual = 0.0585313, Final residual = 0.00263131, No Iterations 1
DICPCG:  Solving for p, Initial residual = 0.0379779, Final residual = 0.00179842, No Iterations 24
time step continuity errors : sum local = 0.0149181, global = 0.00677242, cumulative = 0.0243645
smoothSolver:  Solving for omega, Initial residual = 0.0271323, Final residual = 0.00157707, No Iterations 1
smoothSolver:  Solving for k, Initial residual = 0.0681251, Final residual = 0.0035376, No Iterations 1
ExecutionTime = 14.1136 s  ClockTime = 14 s

volFieldValue Uavg_propeller write:
    volAverage(propeller) of U = (0.0646997 0.0245137 -7.07554)

surfaceFieldValue phi_farField write:
    orientedSum(farField) of phi = 1.18858

surfaceFieldValue phi_top write:
    orientedSum(top) of phi = -0.863504

Time = 16s

--> FOAM Warning : 
    From function void Foam::Function1s::Table<Type>::checkX(Foam::scalar) const [with Type = Foam::Vector2D<double>; Foam::scalar = double]
    in file lnInclude/Table.C at line 107
    "value (2.35851) overflow"

--> FOAM Warning : 
    From function void Foam::Function1s::Table<Type>::checkX(Foam::scalar) const [with Type = Foam::Vector2D<double>; Foam::scalar = double]
    in file lnInclude/Table.C at line 107
    "value (2.34362) overflow"

smoothSolver:  Solving for Ux, Initial residual = 0.0437103, Final residual = 0.00238051, No Iterations 1
smoothSolver:  Solving for Uy, Initial residual = 0.0436272, Final residual = 0.0023224, No Iterations 1
smoothSolver:  Solving for Uz, Initial residual = 0.0530011, Final residual = 0.00234806, No Iterations 1
DICPCG:  Solving for p, Initial residual = 0.0191536, Final residual = 0.000902688, No Iterations 28
time step continuity errors : sum local = 0.0144769, global = 0.00444997, cumulative = 0.0288144
smoothSolver:  Solving for omega, Initial residual = 0.0263246, Final residual = 0.00152428, No Iterations 1
smoothSolver:  Solving for k, Initial residual = 0.0652531, Final residual = 0.00337698, No Iterations 1
ExecutionTime = 14.8605 s  ClockTime = 15 s

volFieldValue Uavg_propeller write:
    volAverage(propeller) of U = (0.0742108 0.0173774 -7.61408)

surfaceFieldValue phi_farField write:
    orientedSum(farField) of phi = 1.12476

surfaceFieldValue phi_top write:
    orientedSum(top) of phi = -0.911159

Time = 17s

--> FOAM Warning : 
    From function void Foam::Function1s::Table<Type>::checkX(Foam::scalar) const [with Type = Foam::Vector2D<double>; Foam::scalar = double]
    in file lnInclude/Table.C at line 107
    "value (2.53803) overflow"

--> FOAM Warning : 
    From function void Foam::Function1s::Table<Type>::checkX(Foam::scalar) const [with Type = Foam::Vector2D<double>; Foam::scalar = double]
    in file lnInclude/Table.C at line 107
    "value (2.52419) overflow"

smoothSolver:  Solving for Ux, Initial residual = 0.0414877, Final residual = 0.00233378, No Iterations 1
smoothSolver:  Solving for Uy, Initial residual = 0.0414194, Final residual = 0.00233109, No Iterations 1
smoothSolver:  Solving for Uz, Initial residual = 0.0483375, Final residual = 0.00232273, No Iterations 1
DICPCG:  Solving for p, Initial residual = 0.0122919, Final residual = 0.000572788, No Iterations 28
time step continuity errors : sum local = 0.0139935, global = 0.00298429, cumulative = 0.0317987
smoothSolver:  Solving for omega, Initial residual = 0.0255348, Final residual = 0.00147139, No Iterations 1
smoothSolver:  Solving for k, Initial residual = 0.0628467, Final residual = 0.00323923, No Iterations 1
ExecutionTime = 15.5744 s  ClockTime = 15 s

volFieldValue Uavg_propeller write:
    volAverage(propeller) of U = (0.0840695 0.0171585 -7.51905)

surfaceFieldValue phi_farField write:
    orientedSum(farField) of phi = 1.10828

surfaceFieldValue phi_top write:
    orientedSum(top) of phi = -0.965034

Time = 18s

--> FOAM Warning : 
    From function void Foam::Function1s::Table<Type>::checkX(Foam::scalar) const [with Type = Foam::Vector2D<double>; Foam::scalar = double]
    in file lnInclude/Table.C at line 107
    "value (2.50635) overflow"

--> FOAM Warning : 
    From function void Foam::Function1s::Table<Type>::checkX(Foam::scalar) const [with Type = Foam::Vector2D<double>; Foam::scalar = double]
    in file lnInclude/Table.C at line 107
    "value (2.49234) overflow"

smoothSolver:  Solving for Ux, Initial residual = 0.0443742, Final residual = 0.00252204, No Iterations 1
smoothSolver:  Solving for Uy, Initial residual = 0.0443663, Final residual = 0.00256891, No Iterations 1
smoothSolver:  Solving for Uz, Initial residual = 0.0472443, Final residual = 0.00253894, No Iterations 1
DICPCG:  Solving for p, Initial residual = 0.00937223, Final residual = 0.00043239, No Iterations 24
time step continuity errors : sum local = 0.0136295, global = 0.00364728, cumulative = 0.035446
smoothSolver:  Solving for omega, Initial residual = 0.0247761, Final residual = 0.00142038, No Iterations 1
smoothSolver:  Solving for k, Initial residual = 0.0608498, Final residual = 0.00312522, No Iterations 1
ExecutionTime = 16.305 s  ClockTime = 16 s

volFieldValue Uavg_propeller write:
    volAverage(propeller) of U = (0.0883437 0.0260975 -6.54021)

surfaceFieldValue phi_farField write:
    orientedSum(farField) of phi = 1.16883

surfaceFieldValue phi_top write:
    orientedSum(top) of phi = -0.993763

Time = 19s

--> FOAM Warning : 
    From function void Foam::Function1s::Table<Type>::checkX(Foam::scalar) const [with Type = Foam::Vector2D<double>; Foam::scalar = double]
    in file lnInclude/Table.C at line 107
    "value (2.18007) overflow"

--> FOAM Warning : 
    From function void Foam::Function1s::Table<Type>::checkX(Foam::scalar) const [with Type = Foam::Vector2D<double>; Foam::scalar = double]
    in file lnInclude/Table.C at line 107
    "value (2.16396) overflow"

smoothSolver:  Solving for Ux, Initial residual = 0.047497, Final residual = 0.00270489, No Iterations 1
smoothSolver:  Solving for Uy, Initial residual = 0.0475345, Final residual = 0.00278554, No Iterations 1
smoothSolver:  Solving for Uz, Initial residual = 0.0483261, Final residual = 0.00274948, No Iterations 1
DICPCG:  Solving for p, Initial residual = 0.00966145, Final residual = 0.000472907, No Iterations 19
time step continuity errors : sum local = 0.0158045, global = 0.00749146, cumulative = 0.0429375
smoothSolver:  Solving for omega, Initial residual = 0.0242164, Final residual = 0.00137941, No Iterations 1
smoothSolver:  Solving for k, Initial residual = 0.0591627, Final residual = 0.00302509, No Iterations 1
ExecutionTime = 16.9952 s  ClockTime = 17 s

volFieldValue Uavg_propeller write:
    volAverage(propeller) of U = (0.0946757 0.0220919 -3.56027)

surfaceFieldValue phi_farField write:
    orientedSum(farField) of phi = 1.37195

surfaceFieldValue phi_top write:
    orientedSum(top) of phi = -1.01236

Time = 20s

--> FOAM Warning : 
    From function void Foam::Function1s::Table<Type>::checkX(Foam::scalar) const [with Type = Foam::Vector2D<double>; Foam::scalar = double]
    in file lnInclude/Table.C at line 107
    "value (1.18676) overflow"

--> FOAM Warning : 
    From function void Foam::Function1s::Table<Type>::checkX(Foam::scalar) const [with Type = Foam::Vector2D<double>; Foam::scalar = double]
    in file lnInclude/Table.C at line 107
    "value (1.15717) overflow"

smoothSolver:  Solving for Ux, Initial residual = 0.0483905, Final residual = 0.00276356, No Iterations 1
smoothSolver:  Solving for Uy, Initial residual = 0.0485445, Final residual = 0.0028552, No Iterations 1
smoothSolver:  Solving for Uz, Initial residual = 0.0500462, Final residual = 0.00284659, No Iterations 1
DICPCG:  Solving for p, Initial residual = 0.0100939, Final residual = 0.00043843, No Iterations 19
time step continuity errors : sum local = 0.0138122, global = 0.00324052, cumulative = 0.046178
smoothSolver:  Solving for omega, Initial residual = 0.023869, Final residual = 0.00134629, No Iterations 1
smoothSolver:  Solving for k, Initial residual = 0.0580254, Final residual = 0.00295825, No Iterations 1
ExecutionTime = 17.6839 s  ClockTime = 17 s

volFieldValue Uavg_propeller write:
    volAverage(propeller) of U = (0.0980564 0.0183882 -2.68036)

surfaceFieldValue phi_farField write:
    orientedSum(farField) of phi = 1.22903

surfaceFieldValue phi_top write:
    orientedSum(top) of phi = -1.07349

Time = 21s

--> FOAM Warning : 
    From function void Foam::Function1s::Table<Type>::checkX(Foam::scalar) const [with Type = Foam::Vector2D<double>; Foam::scalar = double]
    in file lnInclude/Table.C at line 107
    "value (0.893452) overflow"

--> FOAM Warning : 
    From function void Foam::Function1s::Table<Type>::checkX(Foam::scalar) const [with Type = Foam::Vector2D<double>; Foam::scalar = double]
    in file lnInclude/Table.C at line 107
    "value (0.854151) overflow"

smoothSolver:  Solving for Ux, Initial residual = 0.0477105, Final residual = 0.00273154, No Iterations 1
smoothSolver:  Solving for Uy, Initial residual = 0.0478433, Final residual = 0.00281348, No Iterations 1
smoothSolver:  Solving for Uz, Initial residual = 0.0522814, Final residual = 0.00298029, No Iterations 1
DICPCG:  Solving for p, Initial residual = 0.0123638, Final residual = 0.000579798, No Iterations 19
time step continuity errors : sum local = 0.0150184, global = -0.00074645, cumulative = 0.0454315
smoothSolver:  Solving for omega, Initial residual = 0.0235785, Final residual = 0.00131485, No Iterations 1
smoothSolver:  Solving for k, Initial residual = 0.0571257, Final residual = 0.00290326, No Iterations 1
ExecutionTime = 18.3886 s  ClockTime = 18 s

volFieldValue Uavg_propeller write:
    volAverage(propeller) of U = (0.0987109 0.0219975 -1.72982)

surfaceFieldValue phi_farField write:
    orientedSum(farField) of phi = 1.0955

surfaceFieldValue phi_top write:
    orientedSum(top) of phi = -1.13133

Time = 22s

smoothSolver:  Solving for Ux, Initial residual = 0.0467726, Final residual = 0.00267445, No Iterations 1
smoothSolver:  Solving for Uy, Initial residual = 0.0469467, Final residual = 0.00273173, No Iterations 1
smoothSolver:  Solving for Uz, Initial residual = 0.0560866, Final residual = 0.0031956, No Iterations 1
DICPCG:  Solving for p, Initial residual = 0.0166568, Final residual = 0.000792234, No Iterations 18
time step continuity errors : sum local = 0.0155293, global = -0.00223388, cumulative = 0.0431977
smoothSolver:  Solving for omega, Initial residual = 0.0232912, Final residual = 0.0012845, No Iterations 1
smoothSolver:  Solving for k, Initial residual = 0.0563174, Final residual = 0.00285469, No Iterations 1
ExecutionTime = 19.0538 s  ClockTime = 19 s

volFieldValue Uavg_propeller write:
    volAverage(propeller) of U = (0.0793808 0.0421342 -1.36681)

surfaceFieldValue phi_farField write:
    orientedSum(farField) of phi = 1.07278

surfaceFieldValue phi_top write:
    orientedSum(top) of phi = -1.18001

Time = 23s

smoothSolver:  Solving for Ux, Initial residual = 0.0463469, Final residual = 0.00262677, No Iterations 1
smoothSolver:  Solving for Uy, Initial residual = 0.0465391, Final residual = 0.00266607, No Iterations 1
smoothSolver:  Solving for Uz, Initial residual = 0.061196, Final residual = 0.00347103, No Iterations 1
DICPCG:  Solving for p, Initial residual = 0.0206155, Final residual = 0.000918132, No Iterations 16
time step continuity errors : sum local = 0.0143161, global = -0.00241159, cumulative = 0.0407861
smoothSolver:  Solving for omega, Initial residual = 0.0229921, Final residual = 0.00125527, No Iterations 1
smoothSolver:  Solving for k, Initial residual = 0.0556079, Final residual = 0.00281262, No Iterations 1
ExecutionTime = 19.6755 s  ClockTime = 19 s

volFieldValue Uavg_propeller write:
    volAverage(propeller) of U = (0.071185 0.00712715 -1.07219)

surfaceFieldValue phi_farField write:
    orientedSum(farField) of phi = 1.10031

surfaceFieldValue phi_top write:
    orientedSum(top) of phi = -1.21606

Time = 24s

smoothSolver:  Solving for Ux, Initial residual = 0.0462631, Final residual = 0.00261656, No Iterations 1
smoothSolver:  Solving for Uy, Initial residual = 0.0464114, Final residual = 0.00263721, No Iterations 1
smoothSolver:  Solving for Uz, Initial residual = 0.0646985, Final residual = 0.00371275, No Iterations 1
DICPCG:  Solving for p, Initial residual = 0.023897, Final residual = 0.00118949, No Iterations 13
time step continuity errors : sum local = 0.0159199, global = -0.00152715, cumulative = 0.0392589
smoothSolver:  Solving for omega, Initial residual = 0.0226717, Final residual = 0.00122808, No Iterations 1
smoothSolver:  Solving for k, Initial residual = 0.0554225, Final residual = 0.00277507, No Iterations 1
ExecutionTime = 20.3158 s  ClockTime = 20 s

volFieldValue Uavg_propeller write:
    volAverage(propeller) of U = (0.0717863 0.0235894 -0.749463)

surfaceFieldValue phi_farField write:
    orientedSum(farField) of phi = 1.17317

surfaceFieldValue phi_top write:
    orientedSum(top) of phi = -1.24648

Time = 25s

--> FOAM Warning : 
    From function void Foam::Function1s::Table<Type>::checkX(Foam::scalar) const [with Type = Foam::Vector2D<double>; Foam::scalar = double]
    in file lnInclude/Table.C at line 107
    "value (-0.85615) underflow"

smoothSolver:  Solving for Ux, Initial residual = 0.0466829, Final residual = 0.00263546, No Iterations 1
smoothSolver:  Solving for Uy, Initial residual = 0.0467797, Final residual = 0.00265344, No Iterations 1
smoothSolver:  Solving for Uz, Initial residual = 0.0654834, Final residual = 0.00379105, No Iterations 1
DICPCG:  Solving for p, Initial residual = 0.0254622, Final residual = 0.00125956, No Iterations 15
time step continuity errors : sum local = 0.0161924, global = -0.00176152, cumulative = 0.0374974
smoothSolver:  Solving for omega, Initial residual = 0.0224693, Final residual = 0.00120746, No Iterations 1
smoothSolver:  Solving for k, Initial residual = 0.0553554, Final residual = 0.00275144, No Iterations 1
ExecutionTime = 20.9614 s  ClockTime = 21 s

volFieldValue Uavg_propeller write:
    volAverage(propeller) of U = (0.0709938 0.0123452 -0.288177)

surfaceFieldValue phi_farField write:
    orientedSum(farField) of phi = 1.17089

surfaceFieldValue phi_top write:
    orientedSum(top) of phi = -1.25544

Time = 26s

--> FOAM Warning : 
    From function void Foam::Function1s::Table<Type>::checkX(Foam::scalar) const [with Type = Foam::Vector2D<double>; Foam::scalar = double]
    in file lnInclude/Table.C at line 107
    "value (-3.28702) underflow"

smoothSolver:  Solving for Ux, Initial residual = 0.0469273, Final residual = 0.00265837, No Iterations 1
smoothSolver:  Solving for Uy, Initial residual = 0.0470053, Final residual = 0.00267654, No Iterations 1
smoothSolver:  Solving for Uz, Initial residual = 0.0634507, Final residual = 0.00373567, No Iterations 1
DICPCG:  Solving for p, Initial residual = 0.0243644, Final residual = 0.00112122, No Iterations 18
time step continuity errors : sum local = 0.0154975, global = -0.000557381, cumulative = 0.03694
smoothSolver:  Solving for omega, Initial residual = 0.0223535, Final residual = 0.00119185, No Iterations 1
smoothSolver:  Solving for k, Initial residual = 0.0560053, Final residual = 0.00276968, No Iterations 1
ExecutionTime = 21.5929 s  ClockTime = 21 s

volFieldValue Uavg_propeller write:
    volAverage(propeller) of U = (0.0778234 -0.00234018 0.235687)

surfaceFieldValue phi_farField write:
    orientedSum(farField) of phi = 1.19889

surfaceFieldValue phi_top write:
    orientedSum(top) of phi = -1.22564

Time = 27s

--> FOAM Warning : 
    From function void Foam::Function1s::Table<Type>::checkX(Foam::scalar) const [with Type = Foam::Vector2D<double>; Foam::scalar = double]
    in file lnInclude/Table.C at line 107
    "value (-4.05796) underflow"

smoothSolver:  Solving for Ux, Initial residual = 0.0472149, Final residual = 0.00268265, No Iterations 1
smoothSolver:  Solving for Uy, Initial residual = 0.0472703, Final residual = 0.00270121, No Iterations 1
smoothSolver:  Solving for Uz, Initial residual = 0.0603697, Final residual = 0.00360552, No Iterations 1
DICPCG:  Solving for p, Initial residual = 0.0177122, Final residual = 0.000834375, No Iterations 17
time step continuity errors : sum local = 0.0155963, global = 0.00179998, cumulative = 0.03874
smoothSolver:  Solving for omega, Initial residual = 0.0223124, Final residual = 0.00118242, No Iterations 1
smoothSolver:  Solving for k, Initial residual = 0.0560968, Final residual = 0.00276161, No Iterations 1
ExecutionTime = 22.2691 s  ClockTime = 22 s

volFieldValue Uavg_propeller write:
    volAverage(propeller) of U = (0.0838885 -0.00255142 0.746783)

surfaceFieldValue phi_farField write:
    orientedSum(farField) of phi = 1.29563

surfaceFieldValue phi_top write:
    orientedSum(top) of phi = -1.20923

Time = 28s

--> FOAM Warning : 
    From function void Foam::Function1s::Table<Type>::checkX(Foam::scalar) const [with Type = Foam::Vector2D<double>; Foam::scalar = double]
    in file lnInclude/Table.C at line 107
    "value (-0.862238) underflow"

smoothSolver:  Solving for Ux, Initial residual = 0.0480615, Final residual = 0.00272778, No Iterations 1
smoothSolver:  Solving for Uy, Initial residual = 0.048117, Final residual = 0.00274044, No Iterations 1
smoothSolver:  Solving for Uz, Initial residual = 0.0581691, Final residual = 0.0035013, No Iterations 1
DICPCG:  Solving for p, Initial residual = 0.0165913, Final residual = 0.0007783, No Iterations 16
time step continuity errors : sum local = 0.015769, global = 0.00400293, cumulative = 0.0427429
smoothSolver:  Solving for omega, Initial residual = 0.0223227, Final residual = 0.00117469, No Iterations 1
smoothSolver:  Solving for k, Initial residual = 0.0562342, Final residual = 0.00275963, No Iterations 1
ExecutionTime = 22.9254 s  ClockTime = 23 s

volFieldValue Uavg_propeller write:
    volAverage(propeller) of U = (0.0953759 -0.00593815 1.09726)

surfaceFieldValue phi_farField write:
    orientedSum(farField) of phi = 1.37533

surfaceFieldValue phi_top write:
    orientedSum(top) of phi = -1.18319

Time = 29s

smoothSolver:  Solving for Ux, Initial residual = 0.0488362, Final residual = 0.00276271, No Iterations 1
smoothSolver:  Solving for Uy, Initial residual = 0.0489185, Final residual = 0.00277567, No Iterations 1
smoothSolver:  Solving for Uz, Initial residual = 0.0573547, Final residual = 0.00346947, No Iterations 1
DICPCG:  Solving for p, Initial residual = 0.0172076, Final residual = 0.000808548, No Iterations 15
time step continuity errors : sum local = 0.0157626, global = 0.00522273, cumulative = 0.0479656
smoothSolver:  Solving for omega, Initial residual = 0.0223392, Final residual = 0.00116871, No Iterations 1
smoothSolver:  Solving for k, Initial residual = 0.0566176, Final residual = 0.00277078, No Iterations 1
ExecutionTime = 23.5728 s  ClockTime = 23 s

volFieldValue Uavg_propeller write:
    volAverage(propeller) of U = (0.106932 -0.00382972 1.23847)

surfaceFieldValue phi_farField write:
    orientedSum(farField) of phi = 1.39685

surfaceFieldValue phi_top write:
    orientedSum(top) of phi = -1.14616

Time = 30s

smoothSolver:  Solving for Ux, Initial residual = 0.0491478, Final residual = 0.00276618, No Iterations 1
smoothSolver:  Solving for Uy, Initial residual = 0.0492389, Final residual = 0.0027744, No Iterations 1
smoothSolver:  Solving for Uz, Initial residual = 0.0581067, Final residual = 0.00349883, No Iterations 1
DICPCG:  Solving for p, Initial residual = 0.0172899, Final residual = 0.000832605, No Iterations 15
time step continuity errors : sum local = 0.0162681, global = 0.00434861, cumulative = 0.0523143
smoothSolver:  Solving for omega, Initial residual = 0.0223382, Final residual = 0.00116211, No Iterations 1
smoothSolver:  Solving for k, Initial residual = 0.0572523, Final residual = 0.00279319, No Iterations 1
ExecutionTime = 24.2605 s  ClockTime = 24 s

volFieldValue Uavg_propeller write:
    volAverage(propeller) of U = (0.113539 0.00508731 1.2911)

surfaceFieldValue phi_farField write:
    orientedSum(farField) of phi = 1.3184

surfaceFieldValue phi_top write:
    orientedSum(top) of phi = -1.10967

Time = 31s

smoothSolver:  Solving for Ux, Initial residual = 0.049056, Final residual = 0.00274633, No Iterations 1
smoothSolver:  Solving for Uy, Initial residual = 0.0491282, Final residual = 0.00274564, No Iterations 1
smoothSolver:  Solving for Uz, Initial residual = 0.0594564, Final residual = 0.00355551, No Iterations 1
DICPCG:  Solving for p, Initial residual = 0.0179219, Final residual = 0.000870211, No Iterations 15
time step continuity errors : sum local = 0.0166943, global = 0.0022856, cumulative = 0.0545999
smoothSolver:  Solving for omega, Initial residual = 0.0223377, Final residual = 0.00115539, No Iterations 1
smoothSolver:  Solving for k, Initial residual = 0.0581118, Final residual = 0.00282948, No Iterations 1
ExecutionTime = 24.9196 s  ClockTime = 25 s

volFieldValue Uavg_propeller write:
    volAverage(propeller) of U = (0.106313 0.00216363 1.19821)

surfaceFieldValue phi_farField write:
    orientedSum(farField) of phi = 1.19017

surfaceFieldValue phi_top write:
    orientedSum(top) of phi = -1.08047

Time = 32s

smoothSolver:  Solving for Ux, Initial residual = 0.0488382, Final residual = 0.00271903, No Iterations 1
smoothSolver:  Solving for Uy, Initial residual = 0.0488895, Final residual = 0.00270764, No Iterations 1
smoothSolver:  Solving for Uz, Initial residual = 0.060619, Final residual = 0.00361116, No Iterations 1
DICPCG:  Solving for p, Initial residual = 0.0179683, Final residual = 0.000830247, No Iterations 15
time step continuity errors : sum local = 0.0159801, global = -0.000872863, cumulative = 0.053727
smoothSolver:  Solving for omega, Initial residual = 0.0223624, Final residual = 0.00114799, No Iterations 1
smoothSolver:  Solving for k, Initial residual = 0.0592045, Final residual = 0.00288069, No Iterations 1
ExecutionTime = 25.5863 s  ClockTime = 25 s

volFieldValue Uavg_propeller write:
    volAverage(propeller) of U = (0.10446 -0.00321884 1.04897)

surfaceFieldValue phi_farField write:
    orientedSum(farField) of phi = 1.01684

surfaceFieldValue phi_top write:
    orientedSum(top) of phi = -1.05874

Time = 33s

smoothSolver:  Solving for Ux, Initial residual = 0.0487348, Final residual = 0.0027054, No Iterations 1
smoothSolver:  Solving for Uy, Initial residual = 0.0487521, Final residual = 0.00268552, No Iterations 1
smoothSolver:  Solving for Uz, Initial residual = 0.0611027, Final residual = 0.00363588, No Iterations 1
DICPCG:  Solving for p, Initial residual = 0.0179495, Final residual = 0.000830356, No Iterations 16
time step continuity errors : sum local = 0.015851, global = -0.00579033, cumulative = 0.0479367
smoothSolver:  Solving for omega, Initial residual = 0.022416, Final residual = 0.00113954, No Iterations 1
smoothSolver:  Solving for k, Initial residual = 0.0604798, Final residual = 0.00294184, No Iterations 1
ExecutionTime = 26.2096 s  ClockTime = 26 s

volFieldValue Uavg_propeller write:
    volAverage(propeller) of U = (0.107812 -0.000330173 0.841917)

surfaceFieldValue phi_farField write:
    orientedSum(farField) of phi = 0.770615

surfaceFieldValue phi_top write:
    orientedSum(top) of phi = -1.04855

Time = 34s

--> FOAM Warning : 
    From function void Foam::Function1s::Table<Type>::checkX(Foam::scalar) const [with Type = Foam::Vector2D<double>; Foam::scalar = double]
    in file lnInclude/Table.C at line 107
    "value (-0.664784) underflow"

smoothSolver:  Solving for Ux, Initial residual = 0.0488488, Final residual = 0.00271024, No Iterations 1
smoothSolver:  Solving for Uy, Initial residual = 0.0488355, Final residual = 0.00268207, No Iterations 1
smoothSolver:  Solving for Uz, Initial residual = 0.0609435, Final residual = 0.00360953, No Iterations 1
DICPCG:  Solving for p, Initial residual = 0.0202616, Final residual = 0.000968917, No Iterations 25
time step continuity errors : sum local = 0.016141, global = -0.00294854, cumulative = 0.0449881
smoothSolver:  Solving for omega, Initial residual = 0.0225164, Final residual = 0.0011339, No Iterations 1
smoothSolver:  Solving for k, Initial residual = 0.062215, Final residual = 0.00302654, No Iterations 1
ExecutionTime = 26.936 s  ClockTime = 27 s

volFieldValue Uavg_propeller write:
    volAverage(propeller) of U = (0.11687 -0.000747885 0.7126)

surfaceFieldValue phi_farField write:
    orientedSum(farField) of phi = 0.829568

surfaceFieldValue phi_top write:
    orientedSum(top) of phi = -0.971098

Time = 35s

--> FOAM Warning : 
    From function void Foam::Function1s::Table<Type>::checkX(Foam::scalar) const [with Type = Foam::Vector2D<double>; Foam::scalar = double]
    in file lnInclude/Table.C at line 107
    "value (-0.943351) underflow"

smoothSolver:  Solving for Ux, Initial residual = 0.0490816, Final residual = 0.00272352, No Iterations 1
smoothSolver:  Solving for Uy, Initial residual = 0.0490638, Final residual = 0.00269096, No Iterations 1
smoothSolver:  Solving for Uz, Initial residual = 0.0605772, Final residual = 0.00354955, No Iterations 1
DICPCG:  Solving for p, Initial residual = 0.0218837, Final residual = 0.00102452, No Iterations 21
time step continuity errors : sum local = 0.0156945, global = -0.00636105, cumulative = 0.0386271
smoothSolver:  Solving for omega, Initial residual = 0.0225814, Final residual = 0.00112627, No Iterations 1
smoothSolver:  Solving for k, Initial residual = 0.0636026, Final residual = 0.00309842, No Iterations 1
ExecutionTime = 27.6612 s  ClockTime = 27 s

volFieldValue Uavg_propeller write:
    volAverage(propeller) of U = (0.13693 -0.00181634 0.714442)

surfaceFieldValue phi_farField write:
    orientedSum(farField) of phi = 0.586586

surfaceFieldValue phi_top write:
    orientedSum(top) of phi = -0.891916

Time = 36s

--> FOAM Warning : 
    From function void Foam::Function1s::Table<Type>::checkX(Foam::scalar) const [with Type = Foam::Vector2D<double>; Foam::scalar = double]
    in file lnInclude/Table.C at line 107
    "value (-0.938809) underflow"

smoothSolver:  Solving for Ux, Initial residual = 0.0491672, Final residual = 0.00273821, No Iterations 1
smoothSolver:  Solving for Uy, Initial residual = 0.0491392, Final residual = 0.00270081, No Iterations 1
smoothSolver:  Solving for Uz, Initial residual = 0.0600698, Final residual = 0.00348813, No Iterations 1
DICPCG:  Solving for p, Initial residual = 0.0233689, Final residual = 0.00115391, No Iterations 20
time step continuity errors : sum local = 0.0165841, global = -0.00545462, cumulative = 0.0331725
smoothSolver:  Solving for omega, Initial residual = 0.0227075, Final residual = 0.00112515, No Iterations 1
smoothSolver:  Solving for k, Initial residual = 0.0655342, Final residual = 0.00319591, No Iterations 1
ExecutionTime = 28.3491 s  ClockTime = 28 s

volFieldValue Uavg_propeller write:
    volAverage(propeller) of U = (0.16359 -0.012053 0.86418)

surfaceFieldValue phi_farField write:
    orientedSum(farField) of phi = 0.489145

surfaceFieldValue phi_top write:
    orientedSum(top) of phi = -0.750967

Time = 37s

--> FOAM Warning : 
    From function void Foam::Function1s::Table<Type>::checkX(Foam::scalar) const [with Type = Foam::Vector2D<double>; Foam::scalar = double]
    in file lnInclude/Table.C at line 107
    "value (-0.623833) underflow"

smoothSolver:  Solving for Ux, Initial residual = 0.0491776, Final residual = 0.00275357, No Iterations 1
smoothSolver:  Solving for Uy, Initial residual = 0.0491366, Final residual = 0.00271251, No Iterations 1
smoothSolver:  Solving for Uz, Initial residual = 0.0598611, Final residual = 0.00347292, No Iterations 1
DICPCG:  Solving for p, Initial residual = 0.0260129, Final residual = 0.00122358, No Iterations 21
time step continuity errors : sum local = 0.0157361, global = -0.001098, cumulative = 0.0320745
smoothSolver:  Solving for omega, Initial residual = 0.0229153, Final residual = 0.00113142, No Iterations 1
smoothSolver:  Solving for k, Initial residual = 0.0674953, Final residual = 0.00331028, No Iterations 1
ExecutionTime = 29.0301 s  ClockTime = 29 s

volFieldValue Uavg_propeller write:
    volAverage(propeller) of U = (0.187929 -0.0306233 1.07909)

surfaceFieldValue phi_farField write:
    orientedSum(farField) of phi = 0.478164

surfaceFieldValue phi_top write:
    orientedSum(top) of phi = -0.530868

Time = 38s

smoothSolver:  Solving for Ux, Initial residual = 0.0490403, Final residual = 0.00276518, No Iterations 1
smoothSolver:  Solving for Uy, Initial residual = 0.048993, Final residual = 0.00272005, No Iterations 1
smoothSolver:  Solving for Uz, Initial residual = 0.0597791, Final residual = 0.00347874, No Iterations 1
DICPCG:  Solving for p, Initial residual = 0.0270238, Final residual = 0.00128355, No Iterations 23
time step continuity errors : sum local = 0.0158628, global = 0.0039526, cumulative = 0.0360271
smoothSolver:  Solving for omega, Initial residual = 0.0231801, Final residual = 0.00114459, No Iterations 1
smoothSolver:  Solving for k, Initial residual = 0.0694023, Final residual = 0.00343536, No Iterations 1
ExecutionTime = 29.7506 s  ClockTime = 29 s

volFieldValue Uavg_propeller write:
    volAverage(propeller) of U = (0.200076 -0.0504345 1.26564)

surfaceFieldValue phi_farField write:
    orientedSum(farField) of phi = 0.440998

surfaceFieldValue phi_top write:
    orientedSum(top) of phi = -0.251273

Time = 39s

smoothSolver:  Solving for Ux, Initial residual = 0.0487463, Final residual = 0.0027683, No Iterations 1
smoothSolver:  Solving for Uy, Initial residual = 0.0486957, Final residual = 0.00271903, No Iterations 1
smoothSolver:  Solving for Uz, Initial residual = 0.0595457, Final residual = 0.00347642, No Iterations 1
DICPCG:  Solving for p, Initial residual = 0.0294396, Final residual = 0.00144252, No Iterations 24
time step continuity errors : sum local = 0.0164199, global = 0.00499381, cumulative = 0.0410209
smoothSolver:  Solving for omega, Initial residual = 0.0234152, Final residual = 0.00116056, No Iterations 1
smoothSolver:  Solving for k, Initial residual = 0.0706445, Final residual = 0.00353624, No Iterations 1
ExecutionTime = 30.4706 s  ClockTime = 30 s

volFieldValue Uavg_propeller write:
    volAverage(propeller) of U = (0.199102 -0.0660535 1.36194)

surfaceFieldValue phi_farField write:
    orientedSum(farField) of phi = 0.26629

surfaceFieldValue phi_top write:
    orientedSum(top) of phi = -0.0265868

Time = 40s

smoothSolver:  Solving for Ux, Initial residual = 0.0482217, Final residual = 0.00275852, No Iterations 1
smoothSolver:  Solving for Uy, Initial residual = 0.0481822, Final residual = 0.00270514, No Iterations 1
smoothSolver:  Solving for Uz, Initial residual = 0.0592606, Final residual = 0.00347262, No Iterations 1
DICPCG:  Solving for p, Initial residual = 0.0334812, Final residual = 0.00165331, No Iterations 16
time step continuity errors : sum local = 0.0169189, global = 0.00658375, cumulative = 0.0476046
smoothSolver:  Solving for omega, Initial residual = 0.0235667, Final residual = 0.00117171, No Iterations 1
smoothSolver:  Solving for k, Initial residual = 0.0713524, Final residual = 0.00359481, No Iterations 1
ExecutionTime = 31.1467 s  ClockTime = 31 s

volFieldValue Uavg_propeller write:
    volAverage(propeller) of U = (0.188636 -0.072887 1.3643)

surfaceFieldValue phi_farField write:
    orientedSum(farField) of phi = -0.0122592

surfaceFieldValue phi_top write:
    orientedSum(top) of phi = 0.328279

Time = 41s

smoothSolver:  Solving for Ux, Initial residual = 0.0476828, Final residual = 0.00274439, No Iterations 1
smoothSolver:  Solving for Uy, Initial residual = 0.0476566, Final residual = 0.00268848, No Iterations 1
smoothSolver:  Solving for Uz, Initial residual = 0.0593984, Final residual = 0.00348874, No Iterations 1
DICPCG:  Solving for p, Initial residual = 0.037019, Final residual = 0.00169835, No Iterations 16
time step continuity errors : sum local = 0.0167195, global = 0.00622222, cumulative = 0.0538269
smoothSolver:  Solving for omega, Initial residual = 0.0236912, Final residual = 0.00118361, No Iterations 1
smoothSolver:  Solving for k, Initial residual = 0.0715816, Final residual = 0.00361593, No Iterations 1
ExecutionTime = 31.8557 s  ClockTime = 32 s

volFieldValue Uavg_propeller write:
    volAverage(propeller) of U = (0.172702 -0.0694154 1.31307)

surfaceFieldValue phi_farField write:
    orientedSum(farField) of phi = -0.244677

surfaceFieldValue phi_top write:
    orientedSum(top) of phi = 0.543344

Time = 42s

smoothSolver:  Solving for Ux, Initial residual = 0.0471422, Final residual = 0.00273236, No Iterations 1
smoothSolver:  Solving for Uy, Initial residual = 0.0471247, Final residual = 0.00267203, No Iterations 1
smoothSolver:  Solving for Uz, Initial residual = 0.0595495, Final residual = 0.00350219, No Iterations 1
DICPCG:  Solving for p, Initial residual = 0.050686, Final residual = 0.002361, No Iterations 15
time step continuity errors : sum local = 0.0171201, global = 0.00362352, cumulative = 0.0574504
smoothSolver:  Solving for omega, Initial residual = 0.023947, Final residual = 0.00120419, No Iterations 1
smoothSolver:  Solving for k, Initial residual = 0.0715309, Final residual = 0.00362289, No Iterations 1
ExecutionTime = 32.4843 s  ClockTime = 32 s

volFieldValue Uavg_propeller write:
    volAverage(propeller) of U = (0.153959 -0.0576617 1.25428)

surfaceFieldValue phi_farField write:
    orientedSum(farField) of phi = -0.562461

surfaceFieldValue phi_top write:
    orientedSum(top) of phi = 0.73639

Time = 43s

smoothSolver:  Solving for Ux, Initial residual = 0.046677, Final residual = 0.00272407, No Iterations 1
smoothSolver:  Solving for Uy, Initial residual = 0.0466521, Final residual = 0.00265879, No Iterations 1
smoothSolver:  Solving for Uz, Initial residual = 0.0599751, Final residual = 0.00351833, No Iterations 1
DICPCG:  Solving for p, Initial residual = 0.0924671, Final residual = 0.00399894, No Iterations 16
time step continuity errors : sum local = 0.0148415, global = -0.000731605, cumulative = 0.0567188
smoothSolver:  Solving for omega, Initial residual = 0.0244838, Final residual = 0.00123819, No Iterations 1
smoothSolver:  Solving for k, Initial residual = 0.0715682, Final residual = 0.00362686, No Iterations 1
ExecutionTime = 33.1384 s  ClockTime = 33 s

volFieldValue Uavg_propeller write:
    volAverage(propeller) of U = (0.134144 -0.0414924 1.21488)

surfaceFieldValue phi_farField write:
    orientedSum(farField) of phi = -0.944895

surfaceFieldValue phi_top write:
    orientedSum(top) of phi = 0.909778

Time = 44s

smoothSolver:  Solving for Ux, Initial residual = 0.0462867, Final residual = 0.00271822, No Iterations 1
smoothSolver:  Solving for Uy, Initial residual = 0.0462485, Final residual = 0.00264847, No Iterations 1
smoothSolver:  Solving for Uz, Initial residual = 0.0604233, Final residual = 0.0035359, No Iterations 1
DICPCG:  Solving for p, Initial residual = 0.145017, Final residual = 0.00704504, No Iterations 17
time step continuity errors : sum local = 0.0156236, global = -0.00634112, cumulative = 0.0503777
smoothSolver:  Solving for omega, Initial residual = 0.0252734, Final residual = 0.00129069, No Iterations 1
smoothSolver:  Solving for k, Initial residual = 0.0715019, Final residual = 0.00363369, No Iterations 1
ExecutionTime = 33.7664 s  ClockTime = 34 s

volFieldValue Uavg_propeller write:
    volAverage(propeller) of U = (0.114007 -0.0247145 1.19472)

surfaceFieldValue phi_farField write:
    orientedSum(farField) of phi = -1.31502

surfaceFieldValue phi_top write:
    orientedSum(top) of phi = 1.01065

Time = 45s

smoothSolver:  Solving for Ux, Initial residual = 0.0459451, Final residual = 0.00271211, No Iterations 1
smoothSolver:  Solving for Uy, Initial residual = 0.0458938, Final residual = 0.00264044, No Iterations 1
smoothSolver:  Solving for Uz, Initial residual = 0.060769, Final residual = 0.00355407, No Iterations 1
DICPCG:  Solving for p, Initial residual = 0.294728, Final residual = 0.0131935, No Iterations 26
time step continuity errors : sum local = 0.0138951, global = -6.70419e-05, cumulative = 0.0503106
smoothSolver:  Solving for omega, Initial residual = 0.0263537, Final residual = 0.00136508, No Iterations 1
smoothSolver:  Solving for k, Initial residual = 0.0713228, Final residual = 0.00364028, No Iterations 1
ExecutionTime = 34.5335 s  ClockTime = 34 s

volFieldValue Uavg_propeller write:
    volAverage(propeller) of U = (0.0939349 -0.0103514 1.17571)

surfaceFieldValue phi_farField write:
    orientedSum(farField) of phi = -1.2468

surfaceFieldValue phi_top write:
    orientedSum(top) of phi = 1.24358

Time = 46s

smoothSolver:  Solving for Ux, Initial residual = 0.0458029, Final residual = 0.00271429, No Iterations 1
smoothSolver:  Solving for Uy, Initial residual = 0.0457472, Final residual = 0.0026419, No Iterations 1
smoothSolver:  Solving for Uz, Initial residual = 0.0612163, Final residual = 0.00358253, No Iterations 1
DICPCG:  Solving for p, Initial residual = 0.223471, Final residual = 0.00974653, No Iterations 25
time step continuity errors : sum local = 0.0134591, global = -0.000933822, cumulative = 0.0493768
smoothSolver:  Solving for omega, Initial residual = 0.0277181, Final residual = 0.00146069, No Iterations 1
smoothSolver:  Solving for k, Initial residual = 0.0713406, Final residual = 0.00366319, No Iterations 1
ExecutionTime = 35.2741 s  ClockTime = 35 s

volFieldValue Uavg_propeller write:
    volAverage(propeller) of U = (0.0745093 -5.45541e-05 1.13784)

surfaceFieldValue phi_farField write:
    orientedSum(farField) of phi = -1.46459

surfaceFieldValue phi_top write:
    orientedSum(top) of phi = 1.41977

Time = 47s

smoothSolver:  Solving for Ux, Initial residual = 0.0457488, Final residual = 0.00272332, No Iterations 1
smoothSolver:  Solving for Uy, Initial residual = 0.0456881, Final residual = 0.00264938, No Iterations 1
smoothSolver:  Solving for Uz, Initial residual = 0.061432, Final residual = 0.00359677, No Iterations 1
DICPCG:  Solving for p, Initial residual = 0.125507, Final residual = 0.00606282, No Iterations 21
time step continuity errors : sum local = 0.0145432, global = -0.00260392, cumulative = 0.0467729
smoothSolver:  Solving for omega, Initial residual = 0.0293081, Final residual = 0.00157231, No Iterations 1
smoothSolver:  Solving for k, Initial residual = 0.0716623, Final residual = 0.00370496, No Iterations 1
ExecutionTime = 35.9676 s  ClockTime = 36 s

volFieldValue Uavg_propeller write:
    volAverage(propeller) of U = (0.0565739 0.00627236 1.07331)

surfaceFieldValue phi_farField write:
    orientedSum(farField) of phi = -1.70598

surfaceFieldValue phi_top write:
    orientedSum(top) of phi = 1.58099

Time = 48s

smoothSolver:  Solving for Ux, Initial residual = 0.0456248, Final residual = 0.00272753, No Iterations 1
smoothSolver:  Solving for Uy, Initial residual = 0.0455573, Final residual = 0.0026515, No Iterations 1
smoothSolver:  Solving for Uz, Initial residual = 0.0611703, Final residual = 0.00357544, No Iterations 1
DICPCG:  Solving for p, Initial residual = 0.0971708, Final residual = 0.00483533, No Iterations 17
time step continuity errors : sum local = 0.0144367, global = -0.00357586, cumulative = 0.043197
smoothSolver:  Solving for omega, Initial residual = 0.0311426, Final residual = 0.00169102, No Iterations 1
smoothSolver:  Solving for k, Initial residual = 0.0723235, Final residual = 0.00378078, No Iterations 1
ExecutionTime = 36.6109 s  ClockTime = 36 s

volFieldValue Uavg_propeller write:
    volAverage(propeller) of U = (0.0406033 0.00987567 0.989795)

surfaceFieldValue phi_farField write:
    orientedSum(farField) of phi = -1.92589

surfaceFieldValue phi_top write:
    orientedSum(top) of phi = 1.75425

Time = 49s

smoothSolver:  Solving for Ux, Initial residual = 0.0453994, Final residual = 0.00272275, No Iterations 1
smoothSolver:  Solving for Uy, Initial residual = 0.0453486, Final residual = 0.00264642, No Iterations 1
smoothSolver:  Solving for Uz, Initial residual = 0.0604811, Final residual = 0.00352869, No Iterations 1
DICPCG:  Solving for p, Initial residual = 0.0860889, Final residual = 0.0041299, No Iterations 16
time step continuity errors : sum local = 0.0134774, global = -0.000888706, cumulative = 0.0423083
smoothSolver:  Solving for omega, Initial residual = 0.0331521, Final residual = 0.00180709, No Iterations 1
smoothSolver:  Solving for k, Initial residual = 0.0733468, Final residual = 0.00389055, No Iterations 1
ExecutionTime = 37.2305 s  ClockTime = 37 s

volFieldValue Uavg_propeller write:
    volAverage(propeller) of U = (0.0273453 0.012164 0.902632)

surfaceFieldValue phi_farField write:
    orientedSum(farField) of phi = -2.00204

surfaceFieldValue phi_top write:
    orientedSum(top) of phi = 1.95939

Time = 50s

--> FOAM Warning : 
    From function void Foam::Function1s::Table<Type>::checkX(Foam::scalar) const [with Type = Foam::Vector2D<double>; Foam::scalar = double]
    in file lnInclude/Table.C at line 107
    "value (-0.556946) underflow"

smoothSolver:  Solving for Ux, Initial residual = 0.0450967, Final residual = 0.00271235, No Iterations 1
smoothSolver:  Solving for Uy, Initial residual = 0.0450723, Final residual = 0.00263657, No Iterations 1
smoothSolver:  Solving for Uz, Initial residual = 0.0594955, Final residual = 0.00348213, No Iterations 1
DICPCG:  Solving for p, Initial residual = 0.0827832, Final residual = 0.00402319, No Iterations 16
time step continuity errors : sum local = 0.0133282, global = 0.00224164, cumulative = 0.04455
smoothSolver:  Solving for omega, Initial residual = 0.0352303, Final residual = 0.0019169, No Iterations 1
smoothSolver:  Solving for k, Initial residual = 0.0746575, Final residual = 0.00402728, No Iterations 1
ExecutionTime = 38.9443 s  ClockTime = 39 s

volFieldValue Uavg_propeller write:
    volAverage(propeller) of U = (0.0167771 0.014531 0.824643)

surfaceFieldValue phi_farField write:
    orientedSum(farField) of phi = -2.04927

surfaceFieldValue phi_top write:
    orientedSum(top) of phi = 2.15687

Time = 51s

--> FOAM Warning : 
    From function void Foam::Function1s::Table<Type>::checkX(Foam::scalar) const [with Type = Foam::Vector2D<double>; Foam::scalar = double]
    in file lnInclude/Table.C at line 107
    "value (-0.697805) underflow"

smoothSolver:  Solving for Ux, Initial residual = 0.044722, Final residual = 0.0026971, No Iterations 1
smoothSolver:  Solving for Uy, Initial residual = 0.0447164, Final residual = 0.00262172, No Iterations 1
smoothSolver:  Solving for Uz, Initial residual = 0.0583539, Final residual = 0.00342872, No Iterations 1
DICPCG:  Solving for p, Initial residual = 0.0819653, Final residual = 0.0040378, No Iterations 23
time step continuity errors : sum local = 0.0131946, global = 0.00291181, cumulative = 0.0474618
smoothSolver:  Solving for omega, Initial residual = 0.0373069, Final residual = 0.00202118, No Iterations 1
smoothSolver:  Solving for k, Initial residual = 0.0763568, Final residual = 0.00417938, No Iterations 1
ExecutionTime = 39.7036 s  ClockTime = 39 s

volFieldValue Uavg_propeller write:
    volAverage(propeller) of U = (0.00895527 0.0176619 0.760217)

surfaceFieldValue phi_farField write:
    orientedSum(farField) of phi = -2.17212

surfaceFieldValue phi_top write:
    orientedSum(top) of phi = 2.31189

Time = 52s

--> FOAM Warning : 
    From function void Foam::Function1s::Table<Type>::checkX(Foam::scalar) const [with Type = Foam::Vector2D<double>; Foam::scalar = double]
    in file lnInclude/Table.C at line 107
    "value (-0.831893) underflow"

smoothSolver:  Solving for Ux, Initial residual = 0.0442176, Final residual = 0.00267394, No Iterations 1
smoothSolver:  Solving for Uy, Initial residual = 0.0442276, Final residual = 0.00259922, No Iterations 1
smoothSolver:  Solving for Uz, Initial residual = 0.0567303, Final residual = 0.00334271, No Iterations 1
DICPCG:  Solving for p, Initial residual = 0.0857562, Final residual = 0.00394587, No Iterations 23
time step continuity errors : sum local = 0.0119108, global = 0.0018741, cumulative = 0.0493359
smoothSolver:  Solving for omega, Initial residual = 0.0393455, Final residual = 0.00212175, No Iterations 1
smoothSolver:  Solving for k, Initial residual = 0.07825, Final residual = 0.00434355, No Iterations 1
ExecutionTime = 40.436 s  ClockTime = 40 s

volFieldValue Uavg_propeller write:
    volAverage(propeller) of U = (0.00395086 0.0214665 0.704757)

surfaceFieldValue phi_farField write:
    orientedSum(farField) of phi = -2.37886

surfaceFieldValue phi_top write:
    orientedSum(top) of phi = 2.46881

Time = 53s

--> FOAM Warning : 
    From function void Foam::Function1s::Table<Type>::checkX(Foam::scalar) const [with Type = Foam::Vector2D<double>; Foam::scalar = double]
    in file lnInclude/Table.C at line 107
    "value (-0.962915) underflow"

smoothSolver:  Solving for Ux, Initial residual = 0.0436521, Final residual = 0.00264434, No Iterations 1
smoothSolver:  Solving for Uy, Initial residual = 0.0436738, Final residual = 0.0025711, No Iterations 1
smoothSolver:  Solving for Uz, Initial residual = 0.0553455, Final residual = 0.00326331, No Iterations 1
DICPCG:  Solving for p, Initial residual = 0.0905163, Final residual = 0.0043653, No Iterations 13
time step continuity errors : sum local = 0.0120175, global = 0.00368698, cumulative = 0.0530228
smoothSolver:  Solving for omega, Initial residual = 0.0412973, Final residual = 0.00221064, No Iterations 1
smoothSolver:  Solving for k, Initial residual = 0.0802191, Final residual = 0.00449834, No Iterations 1
ExecutionTime = 41.0816 s  ClockTime = 41 s

volFieldValue Uavg_propeller write:
    volAverage(propeller) of U = (0.00160685 0.0255495 0.651913)

surfaceFieldValue phi_farField write:
    orientedSum(farField) of phi = -2.49539

surfaceFieldValue phi_top write:
    orientedSum(top) of phi = 2.67236

Time = 54s

--> FOAM Warning : 
    From function void Foam::Function1s::Table<Type>::checkX(Foam::scalar) const [with Type = Foam::Vector2D<double>; Foam::scalar = double]
    in file lnInclude/Table.C at line 107
    "value (-1.10536) underflow"

smoothSolver:  Solving for Ux, Initial residual = 0.0431345, Final residual = 0.00261275, No Iterations 1
smoothSolver:  Solving for Uy, Initial residual = 0.0431617, Final residual = 0.00254187, No Iterations 1
smoothSolver:  Solving for Uz, Initial residual = 0.0547706, Final residual = 0.00321974, No Iterations 1
DICPCG:  Solving for p, Initial residual = 0.0884194, Final residual = 0.0039157, No Iterations 13
time step continuity errors : sum local = 0.0106667, global = 0.00283443, cumulative = 0.0558573
smoothSolver:  Solving for omega, Initial residual = 0.0432027, Final residual = 0.00228997, No Iterations 1
smoothSolver:  Solving for k, Initial residual = 0.0822471, Final residual = 0.00464463, No Iterations 1
ExecutionTime = 41.6937 s  ClockTime = 41 s

volFieldValue Uavg_propeller write:
    volAverage(propeller) of U = (0.00184918 0.0291529 0.592597)

surfaceFieldValue phi_farField write:
    orientedSum(farField) of phi = -2.69058

surfaceFieldValue phi_top write:
    orientedSum(top) of phi = 2.82663

Time = 55s

--> FOAM Warning : 
    From function void Foam::Function1s::Table<Type>::checkX(Foam::scalar) const [with Type = Foam::Vector2D<double>; Foam::scalar = double]
    in file lnInclude/Table.C at line 107
    "value (-1.29155) underflow"

smoothSolver:  Solving for Ux, Initial residual = 0.0425801, Final residual = 0.00257605, No Iterations 1
smoothSolver:  Solving for Uy, Initial residual = 0.0426282, Final residual = 0.00250907, No Iterations 1
smoothSolver:  Solving for Uz, Initial residual = 0.0542692, Final residual = 0.003175, No Iterations 1
DICPCG:  Solving for p, Initial residual = 0.0854273, Final residual = 0.00363356, No Iterations 13
time step continuity errors : sum local = 0.00987984, global = 0.0018873, cumulative = 0.0577446
smoothSolver:  Solving for omega, Initial residual = 0.0449118, Final residual = 0.00235755, No Iterations 1
smoothSolver:  Solving for k, Initial residual = 0.0841648, Final residual = 0.00476976, No Iterations 1
ExecutionTime = 42.3058 s  ClockTime = 42 s

volFieldValue Uavg_propeller write:
    volAverage(propeller) of U = (0.00459365 0.0312812 0.518587)

surfaceFieldValue phi_farField write:
    orientedSum(farField) of phi = -2.88773

surfaceFieldValue phi_top write:
    orientedSum(top) of phi = 2.97832

Time = 56s

--> FOAM Warning : 
    From function void Foam::Function1s::Table<Type>::checkX(Foam::scalar) const [with Type = Foam::Vector2D<double>; Foam::scalar = double]
    in file lnInclude/Table.C at line 107
    "value (-1.57502) underflow"

smoothSolver:  Solving for Ux, Initial residual = 0.0420338, Final residual = 0.00253853, No Iterations 1
smoothSolver:  Solving for Uy, Initial residual = 0.0421202, Final residual = 0.0024766, No Iterations 1
smoothSolver:  Solving for Uz, Initial residual = 0.0537248, Final residual = 0.0031263, No Iterations 1
DICPCG:  Solving for p, Initial residual = 0.0818408, Final residual = 0.00361524, No Iterations 13
time step continuity errors : sum local = 0.00982901, global = 0.00110915, cumulative = 0.0588537
smoothSolver:  Solving for omega, Initial residual = 0.0464177, Final residual = 0.00241342, No Iterations 1
smoothSolver:  Solving for k, Initial residual = 0.0858591, Final residual = 0.00486388, No Iterations 1
ExecutionTime = 42.9421 s  ClockTime = 43 s

volFieldValue Uavg_propeller write:
    volAverage(propeller) of U = (0.00911543 0.0313495 0.429246)

surfaceFieldValue phi_farField write:
    orientedSum(farField) of phi = -3.0745

surfaceFieldValue phi_top write:
    orientedSum(top) of phi = 3.12774

Time = 57s

--> FOAM Warning : 
    From function void Foam::Function1s::Table<Type>::checkX(Foam::scalar) const [with Type = Foam::Vector2D<double>; Foam::scalar = double]
    in file lnInclude/Table.C at line 107
    "value (-2.03532) underflow"

smoothSolver:  Solving for Ux, Initial residual = 0.0415283, Final residual = 0.00250247, No Iterations 1
smoothSolver:  Solving for Uy, Initial residual = 0.0416693, Final residual = 0.00244591, No Iterations 1
smoothSolver:  Solving for Uz, Initial residual = 0.0530019, Final residual = 0.00306561, No Iterations 1
DICPCG:  Solving for p, Initial residual = 0.0780668, Final residual = 0.0035306, No Iterations 14
time step continuity errors : sum local = 0.00960778, global = 0.00100135, cumulative = 0.0598551
smoothSolver:  Solving for omega, Initial residual = 0.0476624, Final residual = 0.00245647, No Iterations 1
smoothSolver:  Solving for k, Initial residual = 0.0870602, Final residual = 0.00491346, No Iterations 1
ExecutionTime = 43.5737 s  ClockTime = 43 s

volFieldValue Uavg_propeller write:
    volAverage(propeller) of U = (0.0138924 0.0294418 0.330457)

surfaceFieldValue phi_farField write:
    orientedSum(farField) of phi = -3.22566

surfaceFieldValue phi_top write:
    orientedSum(top) of phi = 3.27372

Time = 58s

--> FOAM Warning : 
    From function void Foam::Function1s::Table<Type>::checkX(Foam::scalar) const [with Type = Foam::Vector2D<double>; Foam::scalar = double]
    in file lnInclude/Table.C at line 107
    "value (-2.81166) underflow"

smoothSolver:  Solving for Ux, Initial residual = 0.0410806, Final residual = 0.00246851, No Iterations 1
smoothSolver:  Solving for Uy, Initial residual = 0.0412873, Final residual = 0.0024178, No Iterations 1
smoothSolver:  Solving for Uz, Initial residual = 0.0519775, Final residual = 0.00298581, No Iterations 1
DICPCG:  Solving for p, Initial residual = 0.0746349, Final residual = 0.0033061, No Iterations 15
time step continuity errors : sum local = 0.00898785, global = 0.001355, cumulative = 0.0612101
smoothSolver:  Solving for omega, Initial residual = 0.0486032, Final residual = 0.00248714, No Iterations 1
smoothSolver:  Solving for k, Initial residual = 0.0876877, Final residual = 0.00490381, No Iterations 1
ExecutionTime = 44.2734 s  ClockTime = 44 s

volFieldValue Uavg_propeller write:
    volAverage(propeller) of U = (0.0172034 0.0265288 0.232244)

surfaceFieldValue phi_farField write:
    orientedSum(farField) of phi = -3.35443

surfaceFieldValue phi_top write:
    orientedSum(top) of phi = 3.41947

Time = 59s

--> FOAM Warning : 
    From function void Foam::Function1s::Table<Type>::checkX(Foam::scalar) const [with Type = Foam::Vector2D<double>; Foam::scalar = double]
    in file lnInclude/Table.C at line 107
    "value (-4.12043) underflow"

smoothSolver:  Solving for Ux, Initial residual = 0.0406967, Final residual = 0.00243658, No Iterations 1
smoothSolver:  Solving for Uy, Initial residual = 0.0409755, Final residual = 0.00239195, No Iterations 1
smoothSolver:  Solving for Uz, Initial residual = 0.0505953, Final residual = 0.00288382, No Iterations 1
DICPCG:  Solving for p, Initial residual = 0.0717819, Final residual = 0.00320792, No Iterations 16
time step continuity errors : sum local = 0.00868173, global = 0.00189751, cumulative = 0.0631076
smoothSolver:  Solving for omega, Initial residual = 0.0492382, Final residual = 0.00250301, No Iterations 1
smoothSolver:  Solving for k, Initial residual = 0.0878293, Final residual = 0.00484304, No Iterations 1
ExecutionTime = 44.966 s  ClockTime = 45 s

volFieldValue Uavg_propeller write:
    volAverage(propeller) of U = (0.0176093 0.0223835 0.143704)

surfaceFieldValue phi_farField write:
    orientedSum(farField) of phi = -3.47915

surfaceFieldValue phi_top write:
    orientedSum(top) of phi = 3.57023

Time = 60s

--> FOAM Warning : 
    From function void Foam::Function1s::Table<Type>::checkX(Foam::scalar) const [with Type = Foam::Vector2D<double>; Foam::scalar = double]
    in file lnInclude/Table.C at line 107
    "value (-6.73635) underflow"

smoothSolver:  Solving for Ux, Initial residual = 0.0403332, Final residual = 0.00240329, No Iterations 1
smoothSolver:  Solving for Uy, Initial residual = 0.0406552, Final residual = 0.00236431, No Iterations 1
smoothSolver:  Solving for Uz, Initial residual = 0.0489327, Final residual = 0.00276346, No Iterations 1
DICPCG:  Solving for p, Initial residual = 0.0698688, Final residual = 0.00342013, No Iterations 18
time step continuity errors : sum local = 0.0091403, global = 0.00219285, cumulative = 0.0653004
smoothSolver:  Solving for omega, Initial residual = 0.0496634, Final residual = 0.00250393, No Iterations 1
smoothSolver:  Solving for k, Initial residual = 0.087453, Final residual = 0.00474431, No Iterations 1
ExecutionTime = 45.6864 s  ClockTime = 45 s

volFieldValue Uavg_propeller write:
    volAverage(propeller) of U = (0.0155936 0.0187498 0.0698286)

surfaceFieldValue phi_farField write:
    orientedSum(farField) of phi = -3.62481

surfaceFieldValue phi_top write:
    orientedSum(top) of phi = 3.73007

Time = 61s

--> FOAM Warning : 
    From function void Foam::Function1s::Table<Type>::checkX(Foam::scalar) const [with Type = Foam::Vector2D<double>; Foam::scalar = double]
    in file lnInclude/Table.C at line 107
    "value (-13.9384) underflow"

smoothSolver:  Solving for Ux, Initial residual = 0.0398964, Final residual = 0.00236492, No Iterations 1
smoothSolver:  Solving for Uy, Initial residual = 0.0402168, Final residual = 0.00232961, No Iterations 1
smoothSolver:  Solving for Uz, Initial residual = 0.0470351, Final residual = 0.00262981, No Iterations 1
DICPCG:  Solving for p, Initial residual = 0.0690438, Final residual = 0.00343086, No Iterations 20
time step continuity errors : sum local = 0.00889566, global = 0.00143346, cumulative = 0.0667339
smoothSolver:  Solving for omega, Initial residual = 0.0497944, Final residual = 0.00249109, No Iterations 1
smoothSolver:  Solving for k, Initial residual = 0.0865412, Final residual = 0.00461292, No Iterations 1
ExecutionTime = 46.3924 s  ClockTime = 46 s

volFieldValue Uavg_propeller write:
    volAverage(propeller) of U = (0.0115326 0.0149881 0.01025)

surfaceFieldValue phi_farField write:
    orientedSum(farField) of phi = -3.82683

[...]
smoothSolver:  Solving for Ux, Initial residual = 0.00251299, Final residual = 0.000248739, No Iterations 1
smoothSolver:  Solving for Uy, Initial residual = 0.00266595, Final residual = 0.000265298, No Iterations 1
smoothSolver:  Solving for Uz, Initial residual = 0.00304196, Final residual = 3.19516e-05, No Iterations 2
DICPCG:  Solving for p, Initial residual = 0.0331062, Final residual = 0.00150333, No Iterations 12
time step continuity errors : sum local = 6.53179e-05, global = 1.83855e-05, cumulative = 0.115394
smoothSolver:  Solving for omega, Initial residual = 0.00113075, Final residual = 8.76155e-05, No Iterations 1
smoothSolver:  Solving for k, Initial residual = 0.00236369, Final residual = 0.000213283, No Iterations 1
ExecutionTime = 764.666 s  ClockTime = 765 s

volFieldValue Uavg_propeller write:
    volAverage(propeller) of U = (0.410296 0.113071 -1.47077)

surfaceFieldValue phi_farField write:
    orientedSum(farField) of phi = -0.883376

surfaceFieldValue phi_top write:
    orientedSum(top) of phi = 0.884259

Time = 983s

smoothSolver:  Solving for Ux, Initial residual = 0.0025161, Final residual = 0.000248996, No Iterations 1
smoothSolver:  Solving for Uy, Initial residual = 0.00266359, Final residual = 0.000265063, No Iterations 1
smoothSolver:  Solving for Uz, Initial residual = 0.00304826, Final residual = 3.20113e-05, No Iterations 2
DICPCG:  Solving for p, Initial residual = 0.0330134, Final residual = 0.00148993, No Iterations 12
time step continuity errors : sum local = 6.51299e-05, global = 1.82934e-05, cumulative = 0.115412
smoothSolver:  Solving for omega, Initial residual = 0.00113161, Final residual = 8.76946e-05, No Iterations 1
smoothSolver:  Solving for k, Initial residual = 0.00236702, Final residual = 0.000213517, No Iterations 1
ExecutionTime = 765.531 s  ClockTime = 766 s

volFieldValue Uavg_propeller write:
    volAverage(propeller) of U = (0.41003 0.115791 -1.47067)

surfaceFieldValue phi_farField write:
    orientedSum(farField) of phi = -0.880808

surfaceFieldValue phi_top write:
    orientedSum(top) of phi = 0.881686

Time = 984s

smoothSolver:  Solving for Ux, Initial residual = 0.00251889, Final residual = 0.000249267, No Iterations 1
smoothSolver:  Solving for Uy, Initial residual = 0.0026612, Final residual = 0.00026483, No Iterations 1
smoothSolver:  Solving for Uz, Initial residual = 0.00305417, Final residual = 3.20688e-05, No Iterations 2
DICPCG:  Solving for p, Initial residual = 0.0327904, Final residual = 0.00147659, No Iterations 12
time step continuity errors : sum local = 6.49268e-05, global = 1.81442e-05, cumulative = 0.11543
smoothSolver:  Solving for omega, Initial residual = 0.00113082, Final residual = 8.76219e-05, No Iterations 1
smoothSolver:  Solving for k, Initial residual = 0.00237108, Final residual = 0.000213823, No Iterations 1
ExecutionTime = 766.332 s  ClockTime = 766 s

volFieldValue Uavg_propeller write:
    volAverage(propeller) of U = (0.409755 0.11852 -1.47056)

surfaceFieldValue phi_farField write:
    orientedSum(farField) of phi = -0.878235

surfaceFieldValue phi_top write:
    orientedSum(top) of phi = 0.879106

Time = 985s

smoothSolver:  Solving for Ux, Initial residual = 0.00252227, Final residual = 0.00024959, No Iterations 1
smoothSolver:  Solving for Uy, Initial residual = 0.00265882, Final residual = 0.00026462, No Iterations 1
smoothSolver:  Solving for Uz, Initial residual = 0.0030608, Final residual = 3.21295e-05, No Iterations 2
DICPCG:  Solving for p, Initial residual = 0.0326467, Final residual = 0.00147534, No Iterations 12
time step continuity errors : sum local = 6.52589e-05, global = 1.79515e-05, cumulative = 0.115448
smoothSolver:  Solving for omega, Initial residual = 0.00113273, Final residual = 8.77363e-05, No Iterations 1
smoothSolver:  Solving for k, Initial residual = 0.00237427, Final residual = 0.000214039, No Iterations 1
ExecutionTime = 767.096 s  ClockTime = 767 s

volFieldValue Uavg_propeller write:
    volAverage(propeller) of U = (0.409469 0.121257 -1.47045)

surfaceFieldValue phi_farField write:
    orientedSum(farField) of phi = -0.87565

surfaceFieldValue phi_top write:
    orientedSum(top) of phi = 0.876511

Time = 986s

smoothSolver:  Solving for Ux, Initial residual = 0.00252563, Final residual = 0.000249909, No Iterations 1
smoothSolver:  Solving for Uy, Initial residual = 0.00265664, Final residual = 0.00026442, No Iterations 1
smoothSolver:  Solving for Uz, Initial residual = 0.00306688, Final residual = 3.21859e-05, No Iterations 2
DICPCG:  Solving for p, Initial residual = 0.0324241, Final residual = 0.00148016, No Iterations 12
time step continuity errors : sum local = 6.58453e-05, global = 1.76959e-05, cumulative = 0.115466
smoothSolver:  Solving for omega, Initial residual = 0.00113255, Final residual = 8.76543e-05, No Iterations 1
smoothSolver:  Solving for k, Initial residual = 0.00237809, Final residual = 0.000214369, No Iterations 1
ExecutionTime = 767.927 s  ClockTime = 768 s

volFieldValue Uavg_propeller write:
    volAverage(propeller) of U = (0.409174 0.124001 -1.47034)

surfaceFieldValue phi_farField write:
    orientedSum(farField) of phi = -0.873053

surfaceFieldValue phi_top write:
    orientedSum(top) of phi = 0.873902

Time = 987s

smoothSolver:  Solving for Ux, Initial residual = 0.00253013, Final residual = 0.00025027, No Iterations 1
smoothSolver:  Solving for Uy, Initial residual = 0.0026547, Final residual = 0.000264227, No Iterations 1
smoothSolver:  Solving for Uz, Initial residual = 0.00307304, Final residual = 3.22438e-05, No Iterations 2
DICPCG:  Solving for p, Initial residual = 0.0322607, Final residual = 0.00148681, No Iterations 12
time step continuity errors : sum local = 6.65223e-05, global = 1.74169e-05, cumulative = 0.115483
smoothSolver:  Solving for omega, Initial residual = 0.00113468, Final residual = 8.77663e-05, No Iterations 1
smoothSolver:  Solving for k, Initial residual = 0.00238249, Final residual = 0.000214708, No Iterations 1
ExecutionTime = 768.728 s  ClockTime = 769 s

volFieldValue Uavg_propeller write:
    volAverage(propeller) of U = (0.40887 0.126753 -1.47023)

surfaceFieldValue phi_farField write:
    orientedSum(farField) of phi = -0.87045

surfaceFieldValue phi_top write:
    orientedSum(top) of phi = 0.871286

Time = 988s

smoothSolver:  Solving for Ux, Initial residual = 0.00253427, Final residual = 0.000250617, No Iterations 1
smoothSolver:  Solving for Uy, Initial residual = 0.00265265, Final residual = 0.000264045, No Iterations 1
smoothSolver:  Solving for Uz, Initial residual = 0.00307941, Final residual = 3.22997e-05, No Iterations 2
DICPCG:  Solving for p, Initial residual = 0.032137, Final residual = 0.00149134, No Iterations 12
time step continuity errors : sum local = 6.7105e-05, global = 1.7144e-05, cumulative = 0.1155
smoothSolver:  Solving for omega, Initial residual = 0.00113641, Final residual = 8.77775e-05, No Iterations 1
smoothSolver:  Solving for k, Initial residual = 0.0023867, Final residual = 0.000214968, No Iterations 1
ExecutionTime = 769.61 s  ClockTime = 770 s

volFieldValue Uavg_propeller write:
    volAverage(propeller) of U = (0.408556 0.12951 -1.47011)

surfaceFieldValue phi_farField write:
    orientedSum(farField) of phi = -0.867835

surfaceFieldValue phi_top write:
    orientedSum(top) of phi = 0.868658

Time = 989s

smoothSolver:  Solving for Ux, Initial residual = 0.00253805, Final residual = 0.000250964, No Iterations 1
smoothSolver:  Solving for Uy, Initial residual = 0.00265051, Final residual = 0.000263862, No Iterations 1
smoothSolver:  Solving for Uz, Initial residual = 0.00308557, Final residual = 3.23564e-05, No Iterations 2
DICPCG:  Solving for p, Initial residual = 0.0320611, Final residual = 0.00149225, No Iterations 12
time step continuity errors : sum local = 6.75277e-05, global = 1.68612e-05, cumulative = 0.115517
smoothSolver:  Solving for omega, Initial residual = 0.00113995, Final residual = 8.7952e-05, No Iterations 1
smoothSolver:  Solving for k, Initial residual = 0.00239194, Final residual = 0.000215385, No Iterations 1
ExecutionTime = 770.428 s  ClockTime = 770 s

volFieldValue Uavg_propeller write:
    volAverage(propeller) of U = (0.408233 0.132273 -1.46999)

surfaceFieldValue phi_farField write:
    orientedSum(farField) of phi = -0.865207

surfaceFieldValue phi_top write:
    orientedSum(top) of phi = 0.866016

Time = 990s

smoothSolver:  Solving for Ux, Initial residual = 0.00254195, Final residual = 0.000251331, No Iterations 1
smoothSolver:  Solving for Uy, Initial residual = 0.00264863, Final residual = 0.000263688, No Iterations 1
smoothSolver:  Solving for Uz, Initial residual = 0.00309166, Final residual = 3.24127e-05, No Iterations 2
DICPCG:  Solving for p, Initial residual = 0.03193, Final residual = 0.00149035, No Iterations 12
time step continuity errors : sum local = 6.78285e-05, global = 1.65937e-05, cumulative = 0.115534
smoothSolver:  Solving for omega, Initial residual = 0.00113979, Final residual = 8.79952e-05, No Iterations 1
smoothSolver:  Solving for k, Initial residual = 0.0023966, Final residual = 0.000215716, No Iterations 1
ExecutionTime = 771.275 s  ClockTime = 771 s

volFieldValue Uavg_propeller write:
    volAverage(propeller) of U = (0.4079 0.135041 -1.46987)

surfaceFieldValue phi_farField write:
    orientedSum(farField) of phi = -0.862575

surfaceFieldValue phi_top write:
    orientedSum(top) of phi = 0.863371

Time = 991s

smoothSolver:  Solving for Ux, Initial residual = 0.00254655, Final residual = 0.000251724, No Iterations 1
smoothSolver:  Solving for Uy, Initial residual = 0.00264692, Final residual = 0.000263534, No Iterations 1
smoothSolver:  Solving for Uz, Initial residual = 0.00309769, Final residual = 3.24694e-05, No Iterations 2
DICPCG:  Solving for p, Initial residual = 0.0318349, Final residual = 0.00148291, No Iterations 12
time step continuity errors : sum local = 6.79029e-05, global = 1.63449e-05, cumulative = 0.11555
smoothSolver:  Solving for omega, Initial residual = 0.00114276, Final residual = 8.81199e-05, No Iterations 1
smoothSolver:  Solving for k, Initial residual = 0.00240169, Final residual = 0.000216125, No Iterations 1
ExecutionTime = 772.081 s  ClockTime = 772 s

volFieldValue Uavg_propeller write:
    volAverage(propeller) of U = (0.407559 0.137813 -1.46975)

surfaceFieldValue phi_farField write:
    orientedSum(farField) of phi = -0.859936

surfaceFieldValue phi_top write:
    orientedSum(top) of phi = 0.860721

Time = 992s

smoothSolver:  Solving for Ux, Initial residual = 0.0025505, Final residual = 0.00025209, No Iterations 1
smoothSolver:  Solving for Uy, Initial residual = 0.00264512, Final residual = 0.000263362, No Iterations 1
smoothSolver:  Solving for Uz, Initial residual = 0.00310353, Final residual = 3.25222e-05, No Iterations 2
DICPCG:  Solving for p, Initial residual = 0.0317105, Final residual = 0.00147119, No Iterations 12
time step continuity errors : sum local = 6.77612e-05, global = 1.61208e-05, cumulative = 0.115566
smoothSolver:  Solving for omega, Initial residual = 0.0011432, Final residual = 8.81515e-05, No Iterations 1
smoothSolver:  Solving for k, Initial residual = 0.00240557, Final residual = 0.000216411, No Iterations 1
ExecutionTime = 772.903 s  ClockTime = 773 s

volFieldValue Uavg_propeller write:
    volAverage(propeller) of U = (0.407208 0.140589 -1.46962)

surfaceFieldValue phi_farField write:
    orientedSum(farField) of phi = -0.857281

surfaceFieldValue phi_top write:
    orientedSum(top) of phi = 0.858055

Time = 993s

smoothSolver:  Solving for Ux, Initial residual = 0.002555, Final residual = 0.00025249, No Iterations 1
smoothSolver:  Solving for Uy, Initial residual = 0.00264261, Final residual = 0.000263171, No Iterations 1
smoothSolver:  Solving for Uz, Initial residual = 0.0031088, Final residual = 3.25736e-05, No Iterations 2
DICPCG:  Solving for p, Initial residual = 0.0314305, Final residual = 0.00145603, No Iterations 12
time step continuity errors : sum local = 6.74412e-05, global = 1.59412e-05, cumulative = 0.115582
smoothSolver:  Solving for omega, Initial residual = 0.00114451, Final residual = 8.82318e-05, No Iterations 1
smoothSolver:  Solving for k, Initial residual = 0.00241101, Final residual = 0.000216835, No Iterations 1
ExecutionTime = 773.722 s  ClockTime = 774 s

volFieldValue Uavg_propeller write:
    volAverage(propeller) of U = (0.406849 0.143369 -1.46949)

surfaceFieldValue phi_farField write:
    orientedSum(farField) of phi = -0.854611

surfaceFieldValue phi_top write:
    orientedSum(top) of phi = 0.855376

Time = 994s

smoothSolver:  Solving for Ux, Initial residual = 0.00255997, Final residual = 0.000252925, No Iterations 1
smoothSolver:  Solving for Uy, Initial residual = 0.00264069, Final residual = 0.000262993, No Iterations 1
smoothSolver:  Solving for Uz, Initial residual = 0.00311419, Final residual = 3.26251e-05, No Iterations 2
DICPCG:  Solving for p, Initial residual = 0.0311328, Final residual = 0.00144187, No Iterations 12
time step continuity errors : sum local = 6.71397e-05, global = 1.58063e-05, cumulative = 0.115598
smoothSolver:  Solving for omega, Initial residual = 0.00114676, Final residual = 8.83521e-05, No Iterations 1
smoothSolver:  Solving for k, Initial residual = 0.00241684, Final residual = 0.000217284, No Iterations 1
ExecutionTime = 774.557 s  ClockTime = 775 s

volFieldValue Uavg_propeller write:
    volAverage(propeller) of U = (0.406481 0.146152 -1.46936)

surfaceFieldValue phi_farField write:
    orientedSum(farField) of phi = -0.851926

surfaceFieldValue phi_top write:
    orientedSum(top) of phi = 0.852685

Time = 995s

smoothSolver:  Solving for Ux, Initial residual = 0.0025646, Final residual = 0.000253351, No Iterations 1
smoothSolver:  Solving for Uy, Initial residual = 0.00263915, Final residual = 0.000262831, No Iterations 1
smoothSolver:  Solving for Uz, Initial residual = 0.00311948, Final residual = 3.26741e-05, No Iterations 2
DICPCG:  Solving for p, Initial residual = 0.0308589, Final residual = 0.00142938, No Iterations 12
time step continuity errors : sum local = 6.6904e-05, global = 1.56709e-05, cumulative = 0.115614
smoothSolver:  Solving for omega, Initial residual = 0.0011487, Final residual = 8.85146e-05, No Iterations 1
smoothSolver:  Solving for k, Initial residual = 0.00242226, Final residual = 0.000217698, No Iterations 1
ExecutionTime = 775.444 s  ClockTime = 775 s

volFieldValue Uavg_propeller write:
    volAverage(propeller) of U = (0.406104 0.148936 -1.46922)

surfaceFieldValue phi_farField write:
    orientedSum(farField) of phi = -0.849231

surfaceFieldValue phi_top write:
    orientedSum(top) of phi = 0.849983

Time = 996s

smoothSolver:  Solving for Ux, Initial residual = 0.00256918, Final residual = 0.000253791, No Iterations 1
smoothSolver:  Solving for Uy, Initial residual = 0.00263737, Final residual = 0.000262651, No Iterations 1
smoothSolver:  Solving for Uz, Initial residual = 0.00312449, Final residual = 3.27227e-05, No Iterations 2
DICPCG:  Solving for p, Initial residual = 0.0307333, Final residual = 0.0014178, No Iterations 12
time step continuity errors : sum local = 6.67218e-05, global = 1.55404e-05, cumulative = 0.115629
smoothSolver:  Solving for omega, Initial residual = 0.00114837, Final residual = 8.85686e-05, No Iterations 1
smoothSolver:  Solving for k, Initial residual = 0.00242644, Final residual = 0.000218011, No Iterations 1
ExecutionTime = 776.248 s  ClockTime = 776 s

volFieldValue Uavg_propeller write:
    volAverage(propeller) of U = (0.405718 0.151723 -1.46908)

surfaceFieldValue phi_farField write:
    orientedSum(farField) of phi = -0.846527

surfaceFieldValue phi_top write:
    orientedSum(top) of phi = 0.847273

Time = 997s

smoothSolver:  Solving for Ux, Initial residual = 0.00257457, Final residual = 0.000254257, No Iterations 1
smoothSolver:  Solving for Uy, Initial residual = 0.00263564, Final residual = 0.000262486, No Iterations 1
smoothSolver:  Solving for Uz, Initial residual = 0.00312947, Final residual = 3.27732e-05, No Iterations 2
DICPCG:  Solving for p, Initial residual = 0.0306429, Final residual = 0.00140413, No Iterations 12
time step continuity errors : sum local = 6.64132e-05, global = 1.53982e-05, cumulative = 0.115645
smoothSolver:  Solving for omega, Initial residual = 0.0011521, Final residual = 8.86974e-05, No Iterations 1
smoothSolver:  Solving for k, Initial residual = 0.00243121, Final residual = 0.000218411, No Iterations 1
ExecutionTime = 777.065 s  ClockTime = 777 s

volFieldValue Uavg_propeller write:
    volAverage(propeller) of U = (0.405323 0.15451 -1.46894)

surfaceFieldValue phi_farField write:
    orientedSum(farField) of phi = -0.843802

surfaceFieldValue phi_top write:
    orientedSum(top) of phi = 0.844541

Time = 998s

smoothSolver:  Solving for Ux, Initial residual = 0.00257983, Final residual = 0.000254744, No Iterations 1
smoothSolver:  Solving for Uy, Initial residual = 0.0026347, Final residual = 0.000262356, No Iterations 1
smoothSolver:  Solving for Uz, Initial residual = 0.00313448, Final residual = 3.28211e-05, No Iterations 2
DICPCG:  Solving for p, Initial residual = 0.0305866, Final residual = 0.00139099, No Iterations 12
time step continuity errors : sum local = 6.61355e-05, global = 1.5227e-05, cumulative = 0.11566
smoothSolver:  Solving for omega, Initial residual = 0.00115311, Final residual = 8.88268e-05, No Iterations 1
smoothSolver:  Solving for k, Initial residual = 0.00243611, Final residual = 0.000218808, No Iterations 1
ExecutionTime = 777.862 s  ClockTime = 778 s

volFieldValue Uavg_propeller write:
    volAverage(propeller) of U = (0.40492 0.157297 -1.4688)

surfaceFieldValue phi_farField write:
    orientedSum(farField) of phi = -0.84107

surfaceFieldValue phi_top write:
    orientedSum(top) of phi = 0.841801

Time = 999s

smoothSolver:  Solving for Ux, Initial residual = 0.002585, Final residual = 0.000255216, No Iterations 1
smoothSolver:  Solving for Uy, Initial residual = 0.00263254, Final residual = 0.000262172, No Iterations 1
smoothSolver:  Solving for Uz, Initial residual = 0.0031398, Final residual = 3.28686e-05, No Iterations 2
DICPCG:  Solving for p, Initial residual = 0.0305687, Final residual = 0.00138054, No Iterations 12
time step continuity errors : sum local = 6.59708e-05, global = 1.50245e-05, cumulative = 0.115675
smoothSolver:  Solving for omega, Initial residual = 0.00115417, Final residual = 8.89388e-05, No Iterations 1
smoothSolver:  Solving for k, Initial residual = 0.0024406, Final residual = 0.000219153, No Iterations 1
ExecutionTime = 778.665 s  ClockTime = 779 s

volFieldValue Uavg_propeller write:
    volAverage(propeller) of U = (0.404507 0.160082 -1.46865)

surfaceFieldValue phi_farField write:
    orientedSum(farField) of phi = -0.838329

surfaceFieldValue phi_top write:
    orientedSum(top) of phi = 0.83905

Time = 1000s

smoothSolver:  Solving for Ux, Initial residual = 0.00259007, Final residual = 0.000255695, No Iterations 1
smoothSolver:  Solving for Uy, Initial residual = 0.00263045, Final residual = 0.000261976, No Iterations 1
smoothSolver:  Solving for Uz, Initial residual = 0.00314475, Final residual = 3.2917e-05, No Iterations 2
DICPCG:  Solving for p, Initial residual = 0.0304075, Final residual = 0.00136556, No Iterations 12
time step continuity errors : sum local = 6.55876e-05, global = 1.48236e-05, cumulative = 0.11569
smoothSolver:  Solving for omega, Initial residual = 0.00115326, Final residual = 8.89293e-05, No Iterations 1
smoothSolver:  Solving for k, Initial residual = 0.00244327, Final residual = 0.00021942, No Iterations 1
ExecutionTime = 780.683 s  ClockTime = 781 s

volFieldValue Uavg_propeller write:
    volAverage(propeller) of U = (0.404085 0.162866 -1.4685)

surfaceFieldValue phi_farField write:
    orientedSum(farField) of phi = -0.835573

surfaceFieldValue phi_top write:
    orientedSum(top) of phi = 0.836285

End

