/*---------------------------------------------------------------------------*\
  =========                 |
  \\      /  F ield         | OpenFOAM: The Open Source CFD Toolbox
   \\    /   O peration     | Website:  https://openfoam.org
    \\  /    A nd           | Version:  13
     \\/     M anipulation  |
\*---------------------------------------------------------------------------*/
Build  : 13-cde978a97c93
Exec   : foamRun
Date   : Feb 26 2026
Time   : 15:00:45
Host   : "JOO-DESKTOP"
PID    : 25583
I/O    : uncollated
Case   : /home/joo/OpenFOAM/joo-13/run/trackB_propellerIGE_v13/cases/baseCase
nProcs : 1
sigFpe : Enabling floating point exception trapping (FOAM_SIGFPE).
fileModificationChecking : Monitoring run-time modified files using timeStampMaster (fileModificationSkew 10)
allowSystemOperations : Allowing user-supplied system call operations

// * * * * * * * * * * * * * * * * * * * * * * * * * * * * * * * * * * * * * //
Create time

Create mesh for time = 300

Selecting solver incompressibleFluid
Selecting viscosity model constant
Selecting turbulence model type RAS
    Selecting RAS turbulence model kOmegaSST
No MRF models present

Selecting patchDistMethod meshWave
Creating fvModels from "constant/fvModels"

Selecting finite volume model type propellerDisk
    Name: diskSource

SIMPLE: Convergence criteria found
        p: tolerance 0.0001
        U: tolerance 1e-05
        k: tolerance 1e-05
        omega: tolerance 1e-05


SIMPLE: Operating solver in steady-state mode with 1 outer corrector
SIMPLE: Operating solver in SIMPLE mode



Starting time loop

Reading set description:
    line

Time = 301s

smoothSolver:  Solving for Ux, Initial residual = 0.000705029, Final residual = 2.58851e-05, No Iterations 1
smoothSolver:  Solving for Uy, Initial residual = 0.00342876, Final residual = 0.000145157, No Iterations 1
smoothSolver:  Solving for Uz, Initial residual = 0.00227889, Final residual = 9.2058e-05, No Iterations 1
DICPCG:  Solving for p, Initial residual = 0.0668291, Final residual = 0.00328253, No Iterations 20
time step continuity errors : sum local = 2.04185, global = 0.466746, cumulative = 0.466746
smoothSolver:  Solving for omega, Initial residual = 0.00132, Final residual = 3.94402e-05, No Iterations 1
smoothSolver:  Solving for k, Initial residual = 0.0437525, Final residual = 0.0015676, No Iterations 1
ExecutionTime = 0.809084 s  ClockTime = 1 s

Time = 302s

smoothSolver:  Solving for Ux, Initial residual = 0.000747094, Final residual = 2.63223e-05, No Iterations 1
smoothSolver:  Solving for Uy, Initial residual = 0.00390423, Final residual = 0.000169162, No Iterations 1
smoothSolver:  Solving for Uz, Initial residual = 0.00246188, Final residual = 9.14851e-05, No Iterations 1
DICPCG:  Solving for p, Initial residual = 0.0602688, Final residual = 0.00293144, No Iterations 20
time step continuity errors : sum local = 1.77889, global = 0.510109, cumulative = 0.976855
smoothSolver:  Solving for omega, Initial residual = 0.001303, Final residual = 3.84624e-05, No Iterations 1
smoothSolver:  Solving for k, Initial residual = 0.0355082, Final residual = 0.00133794, No Iterations 1
ExecutionTime = 0.909028 s  ClockTime = 1 s

Time = 303s

smoothSolver:  Solving for Ux, Initial residual = 0.000752692, Final residual = 2.60039e-05, No Iterations 1
smoothSolver:  Solving for Uy, Initial residual = 0.00423473, Final residual = 0.000184638, No Iterations 1
smoothSolver:  Solving for Uz, Initial residual = 0.00261154, Final residual = 9.38472e-05, No Iterations 1
DICPCG:  Solving for p, Initial residual = 0.0576975, Final residual = 0.00267709, No Iterations 22
time step continuity errors : sum local = 1.51574, global = 0.136157, cumulative = 1.11301
smoothSolver:  Solving for omega, Initial residual = 0.00129357, Final residual = 3.75958e-05, No Iterations 1
smoothSolver:  Solving for k, Initial residual = 0.0359486, Final residual = 0.00136908, No Iterations 1
ExecutionTime = 1.00173 s  ClockTime = 1 s

Time = 304s

smoothSolver:  Solving for Ux, Initial residual = 0.000734844, Final residual = 2.49955e-05, No Iterations 1
smoothSolver:  Solving for Uy, Initial residual = 0.00435408, Final residual = 0.000188833, No Iterations 1
smoothSolver:  Solving for Uz, Initial residual = 0.00276331, Final residual = 9.87717e-05, No Iterations 1
DICPCG:  Solving for p, Initial residual = 0.0582763, Final residual = 0.00280763, No Iterations 24
time step continuity errors : sum local = 1.47984, global = 0.225078, cumulative = 1.33809
smoothSolver:  Solving for omega, Initial residual = 0.00128691, Final residual = 3.6791e-05, No Iterations 1
smoothSolver:  Solving for k, Initial residual = 0.0343163, Final residual = 0.00127903, No Iterations 1
ExecutionTime = 1.10547 s  ClockTime = 2 s

Time = 305s

smoothSolver:  Solving for Ux, Initial residual = 0.000710991, Final residual = 2.41457e-05, No Iterations 1
smoothSolver:  Solving for Uy, Initial residual = 0.00430442, Final residual = 0.000184422, No Iterations 1
smoothSolver:  Solving for Uz, Initial residual = 0.00292208, Final residual = 0.000105355, No Iterations 1
DICPCG:  Solving for p, Initial residual = 0.0574257, Final residual = 0.00286248, No Iterations 22
time step continuity errors : sum local = 1.49463, global = 0.302379, cumulative = 1.64047
smoothSolver:  Solving for omega, Initial residual = 0.00128017, Final residual = 3.61711e-05, No Iterations 1
smoothSolver:  Solving for k, Initial residual = 0.0308689, Final residual = 0.00117343, No Iterations 1
ExecutionTime = 1.21266 s  ClockTime = 2 s

Time = 306s

smoothSolver:  Solving for Ux, Initial residual = 0.000698024, Final residual = 2.38383e-05, No Iterations 1
smoothSolver:  Solving for Uy, Initial residual = 0.00421567, Final residual = 0.000178724, No Iterations 1
smoothSolver:  Solving for Uz, Initial residual = 0.00305572, Final residual = 0.000111717, No Iterations 1
DICPCG:  Solving for p, Initial residual = 0.0606631, Final residual = 0.00300712, No Iterations 10
time step continuity errors : sum local = 1.49269, global = 0.394281, cumulative = 2.03475
smoothSolver:  Solving for omega, Initial residual = 0.00127358, Final residual = 3.55375e-05, No Iterations 1
smoothSolver:  Solving for k, Initial residual = 0.0310387, Final residual = 0.00122343, No Iterations 1
ExecutionTime = 1.30231 s  ClockTime = 2 s

Time = 307s

smoothSolver:  Solving for Ux, Initial residual = 0.000691744, Final residual = 2.3551e-05, No Iterations 1
smoothSolver:  Solving for Uy, Initial residual = 0.00413743, Final residual = 0.000173838, No Iterations 1
smoothSolver:  Solving for Uz, Initial residual = 0.003135, Final residual = 0.000116192, No Iterations 1
DICPCG:  Solving for p, Initial residual = 0.0618834, Final residual = 0.00283723, No Iterations 11
time step continuity errors : sum local = 1.38437, global = 0.0133536, cumulative = 2.0481
smoothSolver:  Solving for omega, Initial residual = 0.00126453, Final residual = 3.5064e-05, No Iterations 1
smoothSolver:  Solving for k, Initial residual = 0.0290241, Final residual = 0.00110598, No Iterations 1
ExecutionTime = 1.3933 s  ClockTime = 2 s

Time = 308s

smoothSolver:  Solving for Ux, Initial residual = 0.000688768, Final residual = 2.34116e-05, No Iterations 1
smoothSolver:  Solving for Uy, Initial residual = 0.00407356, Final residual = 0.000170503, No Iterations 1
smoothSolver:  Solving for Uz, Initial residual = 0.00321523, Final residual = 0.000119993, No Iterations 1
DICPCG:  Solving for p, Initial residual = 0.0616773, Final residual = 0.00296841, No Iterations 17
time step continuity errors : sum local = 1.46992, global = -0.308141, cumulative = 1.73996
smoothSolver:  Solving for omega, Initial residual = 0.00125583, Final residual = 3.48184e-05, No Iterations 1
smoothSolver:  Solving for k, Initial residual = 0.0307736, Final residual = 0.00120576, No Iterations 1
ExecutionTime = 1.48856 s  ClockTime = 2 s

Time = 309s

smoothSolver:  Solving for Ux, Initial residual = 0.000696599, Final residual = 2.36955e-05, No Iterations 1
smoothSolver:  Solving for Uy, Initial residual = 0.00405903, Final residual = 0.000170084, No Iterations 1
smoothSolver:  Solving for Uz, Initial residual = 0.00327114, Final residual = 0.000121833, No Iterations 1
DICPCG:  Solving for p, Initial residual = 0.0635327, Final residual = 0.00308866, No Iterations 20
time step continuity errors : sum local = 1.50609, global = -0.33086, cumulative = 1.4091
smoothSolver:  Solving for omega, Initial residual = 0.00124638, Final residual = 3.46101e-05, No Iterations 1
smoothSolver:  Solving for k, Initial residual = 0.0316589, Final residual = 0.00127493, No Iterations 1
ExecutionTime = 1.58819 s  ClockTime = 2 s

Time = 310s

smoothSolver:  Solving for Ux, Initial residual = 0.000707464, Final residual = 2.41133e-05, No Iterations 1
smoothSolver:  Solving for Uy, Initial residual = 0.00407034, Final residual = 0.000170475, No Iterations 1
smoothSolver:  Solving for Uz, Initial residual = 0.00329463, Final residual = 0.000121229, No Iterations 1
DICPCG:  Solving for p, Initial residual = 0.0616287, Final residual = 0.00299918, No Iterations 21
time step continuity errors : sum local = 1.50826, global = -0.159654, cumulative = 1.24945
smoothSolver:  Solving for omega, Initial residual = 0.00123403, Final residual = 3.44286e-05, No Iterations 1
smoothSolver:  Solving for k, Initial residual = 0.0306204, Final residual = 0.00122136, No Iterations 1
ExecutionTime = 1.69966 s  ClockTime = 2 s

Time = 311s

smoothSolver:  Solving for Ux, Initial residual = 0.000709339, Final residual = 2.40168e-05, No Iterations 1
smoothSolver:  Solving for Uy, Initial residual = 0.00408311, Final residual = 0.000170512, No Iterations 1
smoothSolver:  Solving for Uz, Initial residual = 0.00331806, Final residual = 0.000121672, No Iterations 1
DICPCG:  Solving for p, Initial residual = 0.058412, Final residual = 0.00279631, No Iterations 20
time step continuity errors : sum local = 1.46806, global = -0.224985, cumulative = 1.02446
smoothSolver:  Solving for omega, Initial residual = 0.00122183, Final residual = 3.42989e-05, No Iterations 1
smoothSolver:  Solving for k, Initial residual = 0.0280389, Final residual = 0.00108953, No Iterations 1
ExecutionTime = 1.80923 s  ClockTime = 2 s

Time = 312s

smoothSolver:  Solving for Ux, Initial residual = 0.000701752, Final residual = 2.3478e-05, No Iterations 1
smoothSolver:  Solving for Uy, Initial residual = 0.00409392, Final residual = 0.000169966, No Iterations 1
smoothSolver:  Solving for Uz, Initial residual = 0.00337714, Final residual = 0.000124322, No Iterations 1
DICPCG:  Solving for p, Initial residual = 0.0558809, Final residual = 0.0026509, No Iterations 10
time step continuity errors : sum local = 1.4509, global = -0.521003, cumulative = 0.503461
smoothSolver:  Solving for omega, Initial residual = 0.00121095, Final residual = 3.44269e-05, No Iterations 1
smoothSolver:  Solving for k, Initial residual = 0.0287116, Final residual = 0.00119754, No Iterations 1
ExecutionTime = 1.89744 s  ClockTime = 2 s

Time = 313s

smoothSolver:  Solving for Ux, Initial residual = 0.000704957, Final residual = 2.35588e-05, No Iterations 1
smoothSolver:  Solving for Uy, Initial residual = 0.00413003, Final residual = 0.000170656, No Iterations 1
smoothSolver:  Solving for Uz, Initial residual = 0.00344956, Final residual = 0.000127166, No Iterations 1
DICPCG:  Solving for p, Initial residual = 0.0553033, Final residual = 0.00251139, No Iterations 17
time step continuity errors : sum local = 1.39156, global = -0.201573, cumulative = 0.301888
smoothSolver:  Solving for omega, Initial residual = 0.00119182, Final residual = 3.42362e-05, No Iterations 1
smoothSolver:  Solving for k, Initial residual = 0.0266054, Final residual = 0.0010274, No Iterations 1
ExecutionTime = 1.99962 s  ClockTime = 2 s

Time = 314s

smoothSolver:  Solving for Ux, Initial residual = 0.000704733, Final residual = 2.33625e-05, No Iterations 1
smoothSolver:  Solving for Uy, Initial residual = 0.00415401, Final residual = 0.000170066, No Iterations 1
smoothSolver:  Solving for Uz, Initial residual = 0.00351351, Final residual = 0.00012996, No Iterations 1
DICPCG:  Solving for p, Initial residual = 0.0538045, Final residual = 0.00258918, No Iterations 9
time step continuity errors : sum local = 1.50604, global = -0.219927, cumulative = 0.0819615
smoothSolver:  Solving for omega, Initial residual = 0.00117454, Final residual = 3.42385e-05, No Iterations 1
smoothSolver:  Solving for k, Initial residual = 0.0285099, Final residual = 0.0011264, No Iterations 1
ExecutionTime = 2.09642 s  ClockTime = 2 s

Time = 315s

smoothSolver:  Solving for Ux, Initial residual = 0.000714956, Final residual = 2.36684e-05, No Iterations 1
smoothSolver:  Solving for Uy, Initial residual = 0.00419978, Final residual = 0.000170793, No Iterations 1
smoothSolver:  Solving for Uz, Initial residual = 0.00356437, Final residual = 0.000131735, No Iterations 1
DICPCG:  Solving for p, Initial residual = 0.0546958, Final residual = 0.00269353, No Iterations 9
time step continuity errors : sum local = 1.55801, global = -0.127896, cumulative = -0.0459349
smoothSolver:  Solving for omega, Initial residual = 0.00115236, Final residual = 3.40881e-05, No Iterations 1
smoothSolver:  Solving for k, Initial residual = 0.0248636, Final residual = 0.00102121, No Iterations 1
ExecutionTime = 2.18977 s  ClockTime = 3 s

Time = 316s

smoothSolver:  Solving for Ux, Initial residual = 0.000727329, Final residual = 2.40674e-05, No Iterations 1
smoothSolver:  Solving for Uy, Initial residual = 0.00424206, Final residual = 0.000170828, No Iterations 1
smoothSolver:  Solving for Uz, Initial residual = 0.00359991, Final residual = 0.000132131, No Iterations 1
DICPCG:  Solving for p, Initial residual = 0.05613, Final residual = 0.00262257, No Iterations 10
time step continuity errors : sum local = 1.47473, global = -0.0647296, cumulative = -0.110664
smoothSolver:  Solving for omega, Initial residual = 0.00112809, Final residual = 3.39321e-05, No Iterations 1
smoothSolver:  Solving for k, Initial residual = 0.0264279, Final residual = 0.000991309, No Iterations 1
ExecutionTime = 2.28339 s  ClockTime = 3 s

Time = 317s

smoothSolver:  Solving for Ux, Initial residual = 0.000741422, Final residual = 2.45324e-05, No Iterations 1
smoothSolver:  Solving for Uy, Initial residual = 0.00428629, Final residual = 0.000171144, No Iterations 1
smoothSolver:  Solving for Uz, Initial residual = 0.0036225, Final residual = 0.000132526, No Iterations 1
DICPCG:  Solving for p, Initial residual = 0.0553867, Final residual = 0.00268454, No Iterations 10
time step continuity errors : sum local = 1.53236, global = -0.0171437, cumulative = -0.127808
smoothSolver:  Solving for omega, Initial residual = 0.00110267, Final residual = 3.37606e-05, No Iterations 1
smoothSolver:  Solving for k, Initial residual = 0.0238019, Final residual = 0.000920115, No Iterations 1
ExecutionTime = 2.37842 s  ClockTime = 3 s

Time = 318s

smoothSolver:  Solving for Ux, Initial residual = 0.000757841, Final residual = 2.50888e-05, No Iterations 1
smoothSolver:  Solving for Uy, Initial residual = 0.00433712, Final residual = 0.000171783, No Iterations 1
smoothSolver:  Solving for Uz, Initial residual = 0.00363616, Final residual = 0.000132614, No Iterations 1
DICPCG:  Solving for p, Initial residual = 0.0552514, Final residual = 0.00263907, No Iterations 10
time step continuity errors : sum local = 1.52888, global = -0.0175844, cumulative = -0.145393
smoothSolver:  Solving for omega, Initial residual = 0.00107555, Final residual = 3.36243e-05, No Iterations 1
smoothSolver:  Solving for k, Initial residual = 0.0215456, Final residual = 0.000854299, No Iterations 1
ExecutionTime = 2.47296 s  ClockTime = 3 s

Time = 319s

smoothSolver:  Solving for Ux, Initial residual = 0.000775191, Final residual = 2.57232e-05, No Iterations 1
smoothSolver:  Solving for Uy, Initial residual = 0.0043911, Final residual = 0.000172623, No Iterations 1
smoothSolver:  Solving for Uz, Initial residual = 0.00363775, Final residual = 0.000132442, No Iterations 1
DICPCG:  Solving for p, Initial residual = 0.0566657, Final residual = 0.00257189, No Iterations 10
time step continuity errors : sum local = 1.46828, global = -0.0527624, cumulative = -0.198155
smoothSolver:  Solving for omega, Initial residual = 0.00104892, Final residual = 3.35264e-05, No Iterations 1
smoothSolver:  Solving for k, Initial residual = 0.0189982, Final residual = 0.000781764, No Iterations 1
ExecutionTime = 2.56385 s  ClockTime = 3 s

Time = 320s

smoothSolver:  Solving for Ux, Initial residual = 0.000792964, Final residual = 2.64131e-05, No Iterations 1
smoothSolver:  Solving for Uy, Initial residual = 0.00444568, Final residual = 0.000173522, No Iterations 1
smoothSolver:  Solving for Uz, Initial residual = 0.00363578, Final residual = 0.000132424, No Iterations 1
DICPCG:  Solving for p, Initial residual = 0.0579062, Final residual = 0.00288171, No Iterations 9
time step continuity errors : sum local = 1.64008, global = -0.105593, cumulative = -0.303748
smoothSolver:  Solving for omega, Initial residual = 0.00102559, Final residual = 3.35998e-05, No Iterations 1
smoothSolver:  Solving for k, Initial residual = 0.0271066, Final residual = 0.000954717, No Iterations 1
ExecutionTime = 2.65166 s  ClockTime = 3 s

Time = 321s

smoothSolver:  Solving for Ux, Initial residual = 0.000810717, Final residual = 2.70901e-05, No Iterations 1
smoothSolver:  Solving for Uy, Initial residual = 0.00450047, Final residual = 0.000174469, No Iterations 1
smoothSolver:  Solving for Uz, Initial residual = 0.00362953, Final residual = 0.000132272, No Iterations 1
DICPCG:  Solving for p, Initial residual = 0.0598792, Final residual = 0.00283122, No Iterations 9
time step continuity errors : sum local = 1.58706, global = -0.166267, cumulative = -0.470014
smoothSolver:  Solving for omega, Initial residual = 0.00100068, Final residual = 3.3616e-05, No Iterations 1
smoothSolver:  Solving for k, Initial residual = 0.0215137, Final residual = 0.00083277, No Iterations 1
ExecutionTime = 2.73912 s  ClockTime = 3 s

Time = 322s

smoothSolver:  Solving for Ux, Initial residual = 0.000828854, Final residual = 2.77876e-05, No Iterations 1
smoothSolver:  Solving for Uy, Initial residual = 0.00455061, Final residual = 0.000174669, No Iterations 1
smoothSolver:  Solving for Uz, Initial residual = 0.0036203, Final residual = 0.000132056, No Iterations 1
DICPCG:  Solving for p, Initial residual = 0.0601576, Final residual = 0.00275335, No Iterations 9
time step continuity errors : sum local = 1.54521, global = -0.269941, cumulative = -0.739956
smoothSolver:  Solving for omega, Initial residual = 0.000979184, Final residual = 3.37657e-05, No Iterations 1
smoothSolver:  Solving for k, Initial residual = 0.0189217, Final residual = 0.000768239, No Iterations 1
ExecutionTime = 2.82406 s  ClockTime = 3 s

Time = 323s

smoothSolver:  Solving for Ux, Initial residual = 0.000846705, Final residual = 2.84862e-05, No Iterations 1
smoothSolver:  Solving for Uy, Initial residual = 0.00459739, Final residual = 0.000174859, No Iterations 1
smoothSolver:  Solving for Uz, Initial residual = 0.00361988, Final residual = 0.000132622, No Iterations 1
DICPCG:  Solving for p, Initial residual = 0.0600192, Final residual = 0.0027067, No Iterations 9
time step continuity errors : sum local = 1.56212, global = -0.381524, cumulative = -1.12148
smoothSolver:  Solving for omega, Initial residual = 0.000964777, Final residual = 3.40124e-05, No Iterations 1
smoothSolver:  Solving for k, Initial residual = 0.0182618, Final residual = 0.00074564, No Iterations 1
ExecutionTime = 2.91073 s  ClockTime = 3 s

Time = 324s

smoothSolver:  Solving for Ux, Initial residual = 0.000863824, Final residual = 2.91804e-05, No Iterations 1
smoothSolver:  Solving for Uy, Initial residual = 0.00463905, Final residual = 0.000174957, No Iterations 1
smoothSolver:  Solving for Uz, Initial residual = 0.00361939, Final residual = 0.000133532, No Iterations 1
DICPCG:  Solving for p, Initial residual = 0.06084, Final residual = 0.00284078, No Iterations 9
time step continuity errors : sum local = 1.61736, global = -0.495295, cumulative = -1.61678
smoothSolver:  Solving for omega, Initial residual = 0.000968736, Final residual = 3.43911e-05, No Iterations 1
smoothSolver:  Solving for k, Initial residual = 0.0182457, Final residual = 0.000747322, No Iterations 1
ExecutionTime = 2.99939 s  ClockTime = 3 s

Time = 325s

smoothSolver:  Solving for Ux, Initial residual = 0.000880142, Final residual = 2.98655e-05, No Iterations 1
smoothSolver:  Solving for Uy, Initial residual = 0.00467923, Final residual = 0.000174999, No Iterations 1
smoothSolver:  Solving for Uz, Initial residual = 0.00361956, Final residual = 0.0001346, No Iterations 1
DICPCG:  Solving for p, Initial residual = 0.0615795, Final residual = 0.00300814, No Iterations 9
time step continuity errors : sum local = 1.7043, global = -0.575174, cumulative = -2.19195
smoothSolver:  Solving for omega, Initial residual = 0.000960034, Final residual = 3.48465e-05, No Iterations 1
smoothSolver:  Solving for k, Initial residual = 0.0185596, Final residual = 0.000751692, No Iterations 1
ExecutionTime = 3.085 s  ClockTime = 3 s

Time = 326s

smoothSolver:  Solving for Ux, Initial residual = 0.000894935, Final residual = 3.05456e-05, No Iterations 1
smoothSolver:  Solving for Uy, Initial residual = 0.00471663, Final residual = 0.000175187, No Iterations 1
smoothSolver:  Solving for Uz, Initial residual = 0.00361913, Final residual = 0.000135604, No Iterations 1
DICPCG:  Solving for p, Initial residual = 0.0632997, Final residual = 0.00302963, No Iterations 10
time step continuity errors : sum local = 1.70382, global = -0.610525, cumulative = -2.80247
smoothSolver:  Solving for omega, Initial residual = 0.000956157, Final residual = 3.54091e-05, No Iterations 1
smoothSolver:  Solving for k, Initial residual = 0.0268498, Final residual = 0.000952676, No Iterations 1
ExecutionTime = 3.17648 s  ClockTime = 4 s

Time = 327s

smoothSolver:  Solving for Ux, Initial residual = 0.000910049, Final residual = 3.12646e-05, No Iterations 1
smoothSolver:  Solving for Uy, Initial residual = 0.00475428, Final residual = 0.00017502, No Iterations 1
smoothSolver:  Solving for Uz, Initial residual = 0.00361133, Final residual = 0.00013575, No Iterations 1
DICPCG:  Solving for p, Initial residual = 0.062729, Final residual = 0.0030712, No Iterations 10
time step continuity errors : sum local = 1.7497, global = -0.643624, cumulative = -3.4461
smoothSolver:  Solving for omega, Initial residual = 0.00095462, Final residual = 3.6053e-05, No Iterations 1
smoothSolver:  Solving for k, Initial residual = 0.0224458, Final residual = 0.000854073, No Iterations 1
ExecutionTime = 3.26459 s  ClockTime = 4 s

Time = 328s

smoothSolver:  Solving for Ux, Initial residual = 0.000926129, Final residual = 3.20237e-05, No Iterations 1
smoothSolver:  Solving for Uy, Initial residual = 0.00479658, Final residual = 0.000175534, No Iterations 1
smoothSolver:  Solving for Uz, Initial residual = 0.00361465, Final residual = 0.000136457, No Iterations 1
DICPCG:  Solving for p, Initial residual = 0.0622724, Final residual = 0.00305584, No Iterations 9
time step continuity errors : sum local = 1.7661, global = -0.659733, cumulative = -4.10583
smoothSolver:  Solving for omega, Initial residual = 0.000958207, Final residual = 3.68617e-05, No Iterations 1
smoothSolver:  Solving for k, Initial residual = 0.0233406, Final residual = 0.000839828, No Iterations 1
ExecutionTime = 3.34986 s  ClockTime = 4 s

Time = 329s

smoothSolver:  Solving for Ux, Initial residual = 0.000943029, Final residual = 3.28086e-05, No Iterations 1
smoothSolver:  Solving for Uy, Initial residual = 0.00484692, Final residual = 0.00017662, No Iterations 1
smoothSolver:  Solving for Uz, Initial residual = 0.00362293, Final residual = 0.000137059, No Iterations 1
DICPCG:  Solving for p, Initial residual = 0.0641369, Final residual = 0.00309316, No Iterations 9
time step continuity errors : sum local = 1.76513, global = -0.59047, cumulative = -4.6963
smoothSolver:  Solving for omega, Initial residual = 0.000965834, Final residual = 3.77397e-05, No Iterations 1
smoothSolver:  Solving for k, Initial residual = 0.0197835, Final residual = 0.000773381, No Iterations 1
ExecutionTime = 3.44319 s  ClockTime = 4 s

Time = 330s

smoothSolver:  Solving for Ux, Initial residual = 0.000960881, Final residual = 3.35939e-05, No Iterations 1
smoothSolver:  Solving for Uy, Initial residual = 0.00490422, Final residual = 0.000178224, No Iterations 1
smoothSolver:  Solving for Uz, Initial residual = 0.00363416, Final residual = 0.00013748, No Iterations 1
DICPCG:  Solving for p, Initial residual = 0.0650459, Final residual = 0.00320478, No Iterations 9
time step continuity errors : sum local = 1.82252, global = -0.456229, cumulative = -5.15253
smoothSolver:  Solving for omega, Initial residual = 0.000977, Final residual = 3.86476e-05, No Iterations 1
smoothSolver:  Solving for k, Initial residual = 0.0189169, Final residual = 0.000763692, No Iterations 1
ExecutionTime = 3.52874 s  ClockTime = 4 s

Time = 331s

smoothSolver:  Solving for Ux, Initial residual = 0.000980131, Final residual = 3.44468e-05, No Iterations 1
smoothSolver:  Solving for Uy, Initial residual = 0.00496581, Final residual = 0.000179979, No Iterations 1
smoothSolver:  Solving for Uz, Initial residual = 0.00364724, Final residual = 0.000137446, No Iterations 1
DICPCG:  Solving for p, Initial residual = 0.0664011, Final residual = 0.00323952, No Iterations 11
time step continuity errors : sum local = 1.83566, global = -0.256855, cumulative = -5.40939
smoothSolver:  Solving for omega, Initial residual = 0.000993404, Final residual = 3.97515e-05, No Iterations 1
smoothSolver:  Solving for k, Initial residual = 0.0279754, Final residual = 0.00105614, No Iterations 1
ExecutionTime = 3.62502 s  ClockTime = 4 s

Time = 332s

smoothSolver:  Solving for Ux, Initial residual = 0.00100106, Final residual = 3.54142e-05, No Iterations 1
smoothSolver:  Solving for Uy, Initial residual = 0.00503054, Final residual = 0.000181708, No Iterations 1
smoothSolver:  Solving for Uz, Initial residual = 0.00366344, Final residual = 0.000137563, No Iterations 1
DICPCG:  Solving for p, Initial residual = 0.0657013, Final residual = 0.00307948, No Iterations 12
time step continuity errors : sum local = 1.76818, global = -0.0690633, cumulative = -5.47845
smoothSolver:  Solving for omega, Initial residual = 0.00102863, Final residual = 4.0888e-05, No Iterations 1
smoothSolver:  Solving for k, Initial residual = 0.0270258, Final residual = 0.00103933, No Iterations 1
ExecutionTime = 3.71521 s  ClockTime = 4 s

Time = 333s

smoothSolver:  Solving for Ux, Initial residual = 0.00102388, Final residual = 3.64332e-05, No Iterations 1
smoothSolver:  Solving for Uy, Initial residual = 0.00509874, Final residual = 0.000184276, No Iterations 1
smoothSolver:  Solving for Uz, Initial residual = 0.0036889, Final residual = 0.000138192, No Iterations 1
DICPCG:  Solving for p, Initial residual = 0.0662433, Final residual = 0.00322424, No Iterations 12
time step continuity errors : sum local = 1.82754, global = 0.116582, cumulative = -5.36187
smoothSolver:  Solving for omega, Initial residual = 0.00105236, Final residual = 4.19093e-05, No Iterations 1
smoothSolver:  Solving for k, Initial residual = 0.0230271, Final residual = 0.000938096, No Iterations 1
ExecutionTime = 3.80535 s  ClockTime = 4 s

Time = 334s

smoothSolver:  Solving for Ux, Initial residual = 0.00104657, Final residual = 3.74146e-05, No Iterations 1
smoothSolver:  Solving for Uy, Initial residual = 0.00517203, Final residual = 0.000187394, No Iterations 1
smoothSolver:  Solving for Uz, Initial residual = 0.00370978, Final residual = 0.000138425, No Iterations 1
DICPCG:  Solving for p, Initial residual = 0.0670853, Final residual = 0.00308847, No Iterations 7
time step continuity errors : sum local = 1.73987, global = 0.420581, cumulative = -4.94129
smoothSolver:  Solving for omega, Initial residual = 0.00107257, Final residual = 4.27319e-05, No Iterations 1
smoothSolver:  Solving for k, Initial residual = 0.026801, Final residual = 0.00106074, No Iterations 1
ExecutionTime = 3.89417 s  ClockTime = 4 s

Time = 335s

smoothSolver:  Solving for Ux, Initial residual = 0.00106528, Final residual = 3.81828e-05, No Iterations 1
smoothSolver:  Solving for Uy, Initial residual = 0.00524057, Final residual = 0.000190485, No Iterations 1
smoothSolver:  Solving for Uz, Initial residual = 0.00372363, Final residual = 0.000138664, No Iterations 1
DICPCG:  Solving for p, Initial residual = 0.0679233, Final residual = 0.00326658, No Iterations 8
time step continuity errors : sum local = 1.84762, global = 0.657271, cumulative = -4.28401
smoothSolver:  Solving for omega, Initial residual = 0.0010959, Final residual = 4.37064e-05, No Iterations 1
smoothSolver:  Solving for k, Initial residual = 0.0264396, Final residual = 0.00102159, No Iterations 1
ExecutionTime = 3.9803 s  ClockTime = 4 s

Time = 336s

smoothSolver:  Solving for Ux, Initial residual = 0.00108421, Final residual = 3.89059e-05, No Iterations 1
smoothSolver:  Solving for Uy, Initial residual = 0.0053156, Final residual = 0.000193615, No Iterations 1
smoothSolver:  Solving for Uz, Initial residual = 0.00373313, Final residual = 0.000137383, No Iterations 1
DICPCG:  Solving for p, Initial residual = 0.068251, Final residual = 0.00310581, No Iterations 17
time step continuity errors : sum local = 1.74406, global = 0.376216, cumulative = -3.9078
smoothSolver:  Solving for omega, Initial residual = 0.00112283, Final residual = 4.48352e-05, No Iterations 1
smoothSolver:  Solving for k, Initial residual = 0.0255199, Final residual = 0.000974755, No Iterations 1
ExecutionTime = 4.07507 s  ClockTime = 4 s

Time = 337s

smoothSolver:  Solving for Ux, Initial residual = 0.00111191, Final residual = 4.00578e-05, No Iterations 1
smoothSolver:  Solving for Uy, Initial residual = 0.00538691, Final residual = 0.00019804, No Iterations 1
smoothSolver:  Solving for Uz, Initial residual = 0.00372772, Final residual = 0.000136006, No Iterations 1
DICPCG:  Solving for p, Initial residual = 0.0688523, Final residual = 0.00335915, No Iterations 7
time step continuity errors : sum local = 1.86565, global = 0.83426, cumulative = -3.07354
smoothSolver:  Solving for omega, Initial residual = 0.00115654, Final residual = 4.53189e-05, No Iterations 1
smoothSolver:  Solving for k, Initial residual = 0.024519, Final residual = 0.000973086, No Iterations 1
ExecutionTime = 4.16483 s  ClockTime = 5 s

Time = 338s

smoothSolver:  Solving for Ux, Initial residual = 0.00112692, Final residual = 4.05149e-05, No Iterations 1
smoothSolver:  Solving for Uy, Initial residual = 0.00545685, Final residual = 0.00020195, No Iterations 1
smoothSolver:  Solving for Uz, Initial residual = 0.00373486, Final residual = 0.000135381, No Iterations 1
DICPCG:  Solving for p, Initial residual = 0.0687831, Final residual = 0.0031932, No Iterations 8
time step continuity errors : sum local = 1.77179, global = 0.764522, cumulative = -2.30902
smoothSolver:  Solving for omega, Initial residual = 0.00118006, Final residual = 4.59453e-05, No Iterations 1
smoothSolver:  Solving for k, Initial residual = 0.0255745, Final residual = 0.000974999, No Iterations 1
ExecutionTime = 4.25242 s  ClockTime = 5 s

Time = 339s

smoothSolver:  Solving for Ux, Initial residual = 0.00114164, Final residual = 4.08588e-05, No Iterations 1
smoothSolver:  Solving for Uy, Initial residual = 0.00553035, Final residual = 0.000206758, No Iterations 1
smoothSolver:  Solving for Uz, Initial residual = 0.00373897, Final residual = 0.000134682, No Iterations 1
DICPCG:  Solving for p, Initial residual = 0.0702314, Final residual = 0.00322429, No Iterations 9
time step continuity errors : sum local = 1.77341, global = 0.665432, cumulative = -1.64358
smoothSolver:  Solving for omega, Initial residual = 0.00119975, Final residual = 4.63777e-05, No Iterations 1
smoothSolver:  Solving for k, Initial residual = 0.0265034, Final residual = 0.00101817, No Iterations 1
ExecutionTime = 4.34065 s  ClockTime = 5 s

Time = 340s

smoothSolver:  Solving for Ux, Initial residual = 0.00115482, Final residual = 4.11724e-05, No Iterations 1
smoothSolver:  Solving for Uy, Initial residual = 0.00561043, Final residual = 0.00021097, No Iterations 1
smoothSolver:  Solving for Uz, Initial residual = 0.00374088, Final residual = 0.00013297, No Iterations 1
DICPCG:  Solving for p, Initial residual = 0.0705264, Final residual = 0.00343381, No Iterations 9
time step continuity errors : sum local = 1.8991, global = 0.51183, cumulative = -1.13175
smoothSolver:  Solving for omega, Initial residual = 0.00121788, Final residual = 4.67022e-05, No Iterations 1
smoothSolver:  Solving for k, Initial residual = 0.0233431, Final residual = 0.000953172, No Iterations 1
ExecutionTime = 4.42898 s  ClockTime = 5 s

Time = 341s

smoothSolver:  Solving for Ux, Initial residual = 0.00116686, Final residual = 4.14224e-05, No Iterations 1
smoothSolver:  Solving for Uy, Initial residual = 0.00569281, Final residual = 0.000215619, No Iterations 1
smoothSolver:  Solving for Uz, Initial residual = 0.00374394, Final residual = 0.000132314, No Iterations 1
DICPCG:  Solving for p, Initial residual = 0.069935, Final residual = 0.00349164, No Iterations 10
time step continuity errors : sum local = 1.95493, global = 0.313879, cumulative = -0.817874
smoothSolver:  Solving for omega, Initial residual = 0.00124976, Final residual = 4.70022e-05, No Iterations 1
smoothSolver:  Solving for k, Initial residual = 0.028291, Final residual = 0.00105496, No Iterations 1
ExecutionTime = 4.51929 s  ClockTime = 5 s

Time = 342s

smoothSolver:  Solving for Ux, Initial residual = 0.00117986, Final residual = 4.16152e-05, No Iterations 1
smoothSolver:  Solving for Uy, Initial residual = 0.00577917, Final residual = 0.000220513, No Iterations 1
smoothSolver:  Solving for Uz, Initial residual = 0.00376011, Final residual = 0.000132151, No Iterations 1
DICPCG:  Solving for p, Initial residual = 0.0703568, Final residual = 0.00341556, No Iterations 13
time step continuity errors : sum local = 1.90825, global = 0.0743844, cumulative = -0.74349
smoothSolver:  Solving for omega, Initial residual = 0.00126401, Final residual = 4.71694e-05, No Iterations 1
smoothSolver:  Solving for k, Initial residual = 0.0254158, Final residual = 0.00100981, No Iterations 1
ExecutionTime = 4.61211 s  ClockTime = 5 s

Time = 343s

smoothSolver:  Solving for Ux, Initial residual = 0.00119362, Final residual = 4.17726e-05, No Iterations 1
smoothSolver:  Solving for Uy, Initial residual = 0.00586735, Final residual = 0.000225171, No Iterations 1
smoothSolver:  Solving for Uz, Initial residual = 0.00379058, Final residual = 0.000132288, No Iterations 1
DICPCG:  Solving for p, Initial residual = 0.0705312, Final residual = 0.00331933, No Iterations 13
time step continuity errors : sum local = 1.86907, global = -0.148067, cumulative = -0.891557
smoothSolver:  Solving for omega, Initial residual = 0.00129249, Final residual = 4.71288e-05, No Iterations 1
smoothSolver:  Solving for k, Initial residual = 0.0222112, Final residual = 0.000896878, No Iterations 1
ExecutionTime = 4.70291 s  ClockTime = 5 s

Time = 344s

smoothSolver:  Solving for Ux, Initial residual = 0.0012057, Final residual = 4.18048e-05, No Iterations 1
smoothSolver:  Solving for Uy, Initial residual = 0.00595454, Final residual = 0.000229091, No Iterations 1
smoothSolver:  Solving for Uz, Initial residual = 0.00380757, Final residual = 0.00013122, No Iterations 1
DICPCG:  Solving for p, Initial residual = 0.0706747, Final residual = 0.00341145, No Iterations 7
time step continuity errors : sum local = 1.92599, global = -0.594103, cumulative = -1.48566
smoothSolver:  Solving for omega, Initial residual = 0.0012976, Final residual = 4.69173e-05, No Iterations 1
smoothSolver:  Solving for k, Initial residual = 0.0275505, Final residual = 0.00106404, No Iterations 1
ExecutionTime = 4.7883 s  ClockTime = 5 s

Time = 345s

smoothSolver:  Solving for Ux, Initial residual = 0.00121401, Final residual = 4.16574e-05, No Iterations 1
smoothSolver:  Solving for Uy, Initial residual = 0.0060249, Final residual = 0.000233082, No Iterations 1
smoothSolver:  Solving for Uz, Initial residual = 0.00378733, Final residual = 0.000129378, No Iterations 1
DICPCG:  Solving for p, Initial residual = 0.0701706, Final residual = 0.003347, No Iterations 16
time step continuity errors : sum local = 1.8984, global = -0.465133, cumulative = -1.95079
smoothSolver:  Solving for omega, Initial residual = 0.00130615, Final residual = 4.68089e-05, No Iterations 1
smoothSolver:  Solving for k, Initial residual = 0.026837, Final residual = 0.00109238, No Iterations 1
ExecutionTime = 4.88663 s  ClockTime = 5 s

Time = 346s

smoothSolver:  Solving for Ux, Initial residual = 0.00122569, Final residual = 4.17387e-05, No Iterations 1
smoothSolver:  Solving for Uy, Initial residual = 0.00612147, Final residual = 0.000238681, No Iterations 1
smoothSolver:  Solving for Uz, Initial residual = 0.00381587, Final residual = 0.000128691, No Iterations 1
DICPCG:  Solving for p, Initial residual = 0.0667608, Final residual = 0.00310613, No Iterations 20
time step continuity errors : sum local = 1.84044, global = -0.236621, cumulative = -2.18741
smoothSolver:  Solving for omega, Initial residual = 0.00132369, Final residual = 4.64284e-05, No Iterations 1
smoothSolver:  Solving for k, Initial residual = 0.0255544, Final residual = 0.000914026, No Iterations 1
ExecutionTime = 4.99019 s  ClockTime = 5 s

Time = 347s

smoothSolver:  Solving for Ux, Initial residual = 0.0012335, Final residual = 4.17367e-05, No Iterations 1
smoothSolver:  Solving for Uy, Initial residual = 0.00621771, Final residual = 0.000244465, No Iterations 1
smoothSolver:  Solving for Uz, Initial residual = 0.00387146, Final residual = 0.000128828, No Iterations 1
DICPCG:  Solving for p, Initial residual = 0.0621721, Final residual = 0.00250424, No Iterations 21
time step continuity errors : sum local = 1.60888, global = -0.0579945, cumulative = -2.24541
smoothSolver:  Solving for omega, Initial residual = 0.0013179, Final residual = 4.60616e-05, No Iterations 1
smoothSolver:  Solving for k, Initial residual = 0.0233133, Final residual = 0.00081087, No Iterations 1
ExecutionTime = 5.09265 s  ClockTime = 5 s

Time = 348s

smoothSolver:  Solving for Ux, Initial residual = 0.00123904, Final residual = 4.16808e-05, No Iterations 1
smoothSolver:  Solving for Uy, Initial residual = 0.00629238, Final residual = 0.000249874, No Iterations 1
smoothSolver:  Solving for Uz, Initial residual = 0.00392206, Final residual = 0.00012904, No Iterations 1
DICPCG:  Solving for p, Initial residual = 0.0587041, Final residual = 0.00266712, No Iterations 9
time step continuity errors : sum local = 1.81308, global = -0.786699, cumulative = -3.03211
smoothSolver:  Solving for omega, Initial residual = 0.00131545, Final residual = 4.57801e-05, No Iterations 1
smoothSolver:  Solving for k, Initial residual = 0.0251713, Final residual = 0.000962981, No Iterations 1
ExecutionTime = 5.1785 s  ClockTime = 6 s

Time = 349s

smoothSolver:  Solving for Ux, Initial residual = 0.00124491, Final residual = 4.18414e-05, No Iterations 1
smoothSolver:  Solving for Uy, Initial residual = 0.00635365, Final residual = 0.000254964, No Iterations 1
smoothSolver:  Solving for Uz, Initial residual = 0.00388117, Final residual = 0.000127003, No Iterations 1
DICPCG:  Solving for p, Initial residual = 0.0589024, Final residual = 0.00281699, No Iterations 10
time step continuity errors : sum local = 1.89976, global = -0.716758, cumulative = -3.74887
smoothSolver:  Solving for omega, Initial residual = 0.00132797, Final residual = 4.54532e-05, No Iterations 1
smoothSolver:  Solving for k, Initial residual = 0.0269981, Final residual = 0.00101612, No Iterations 1
ExecutionTime = 5.25979 s  ClockTime = 6 s

Time = 350s

smoothSolver:  Solving for Ux, Initial residual = 0.00125018, Final residual = 4.19191e-05, No Iterations 1
smoothSolver:  Solving for Uy, Initial residual = 0.00640993, Final residual = 0.000259454, No Iterations 1
smoothSolver:  Solving for Uz, Initial residual = 0.00384236, Final residual = 0.000124828, No Iterations 1
DICPCG:  Solving for p, Initial residual = 0.0570555, Final residual = 0.00252949, No Iterations 20
time step continuity errors : sum local = 1.76031, global = -0.250388, cumulative = -3.99925
smoothSolver:  Solving for omega, Initial residual = 0.00131157, Final residual = 4.47366e-05, No Iterations 1
smoothSolver:  Solving for k, Initial residual = 0.0204323, Final residual = 0.000723961, No Iterations 1
ExecutionTime = 5.57778 s  ClockTime = 6 s

Time = 351s

smoothSolver:  Solving for Ux, Initial residual = 0.0012455, Final residual = 4.1493e-05, No Iterations 1
smoothSolver:  Solving for Uy, Initial residual = 0.00644975, Final residual = 0.000263278, No Iterations 1
smoothSolver:  Solving for Uz, Initial residual = 0.0038198, Final residual = 0.000123576, No Iterations 1
DICPCG:  Solving for p, Initial residual = 0.0561971, Final residual = 0.00276852, No Iterations 9
time step continuity errors : sum local = 1.9854, global = -0.686559, cumulative = -4.68581
smoothSolver:  Solving for omega, Initial residual = 0.0013039, Final residual = 4.43361e-05, No Iterations 1
smoothSolver:  Solving for k, Initial residual = 0.024793, Final residual = 0.000904389, No Iterations 1
ExecutionTime = 5.68986 s  ClockTime = 6 s

Time = 352s

smoothSolver:  Solving for Ux, Initial residual = 0.00123926, Final residual = 4.12385e-05, No Iterations 1
smoothSolver:  Solving for Uy, Initial residual = 0.00647365, Final residual = 0.000266394, No Iterations 1
smoothSolver:  Solving for Uz, Initial residual = 0.00377146, Final residual = 0.000121403, No Iterations 1
DICPCG:  Solving for p, Initial residual = 0.0559541, Final residual = 0.00266071, No Iterations 10
time step continuity errors : sum local = 1.8988, global = -0.690054, cumulative = -5.37587
smoothSolver:  Solving for omega, Initial residual = 0.00130691, Final residual = 4.38132e-05, No Iterations 1
smoothSolver:  Solving for k, Initial residual = 0.0243235, Final residual = 0.000879098, No Iterations 1
ExecutionTime = 5.78552 s  ClockTime = 6 s

Time = 353s

smoothSolver:  Solving for Ux, Initial residual = 0.00122864, Final residual = 4.0815e-05, No Iterations 1
smoothSolver:  Solving for Uy, Initial residual = 0.00648529, Final residual = 0.00026833, No Iterations 1
smoothSolver:  Solving for Uz, Initial residual = 0.0037334, Final residual = 0.000119515, No Iterations 1
DICPCG:  Solving for p, Initial residual = 0.0590704, Final residual = 0.00290281, No Iterations 15
time step continuity errors : sum local = 1.97827, global = -0.419845, cumulative = -5.79571
smoothSolver:  Solving for omega, Initial residual = 0.00129433, Final residual = 4.32842e-05, No Iterations 1
smoothSolver:  Solving for k, Initial residual = 0.022971, Final residual = 0.0009087, No Iterations 1
ExecutionTime = 5.89352 s  ClockTime = 6 s

Time = 354s

smoothSolver:  Solving for Ux, Initial residual = 0.00121983, Final residual = 4.02049e-05, No Iterations 1
smoothSolver:  Solving for Uy, Initial residual = 0.00649554, Final residual = 0.000269362, No Iterations 1
smoothSolver:  Solving for Uz, Initial residual = 0.00373309, Final residual = 0.000118752, No Iterations 1
DICPCG:  Solving for p, Initial residual = 0.0570464, Final residual = 0.00276871, No Iterations 8
time step continuity errors : sum local = 1.97896, global = -0.800516, cumulative = -6.59623
smoothSolver:  Solving for omega, Initial residual = 0.00127749, Final residual = 4.27278e-05, No Iterations 1
smoothSolver:  Solving for k, Initial residual = 0.0240459, Final residual = 0.000870879, No Iterations 1
ExecutionTime = 6.00001 s  ClockTime = 6 s

Time = 355s

smoothSolver:  Solving for Ux, Initial residual = 0.00120223, Final residual = 3.95571e-05, No Iterations 1
smoothSolver:  Solving for Uy, Initial residual = 0.00648265, Final residual = 0.000269603, No Iterations 1
smoothSolver:  Solving for Uz, Initial residual = 0.00370129, Final residual = 0.000117985, No Iterations 1
DICPCG:  Solving for p, Initial residual = 0.0578217, Final residual = 0.00280312, No Iterations 8
time step continuity errors : sum local = 2.01741, global = -0.784125, cumulative = -7.38035
smoothSolver:  Solving for omega, Initial residual = 0.00126454, Final residual = 4.22484e-05, No Iterations 1
smoothSolver:  Solving for k, Initial residual = 0.0202501, Final residual = 0.000773928, No Iterations 1
ExecutionTime = 6.10608 s  ClockTime = 6 s

Time = 356s

smoothSolver:  Solving for Ux, Initial residual = 0.00118343, Final residual = 3.88542e-05, No Iterations 1
smoothSolver:  Solving for Uy, Initial residual = 0.00647015, Final residual = 0.000268637, No Iterations 1
smoothSolver:  Solving for Uz, Initial residual = 0.00368116, Final residual = 0.000117893, No Iterations 1
DICPCG:  Solving for p, Initial residual = 0.0600893, Final residual = 0.00284682, No Iterations 9
time step continuity errors : sum local = 2.01414, global = -0.734607, cumulative = -8.11496
smoothSolver:  Solving for omega, Initial residual = 0.00125336, Final residual = 4.18589e-05, No Iterations 1
smoothSolver:  Solving for k, Initial residual = 0.0249385, Final residual = 0.000853844, No Iterations 1
ExecutionTime = 6.20365 s  ClockTime = 7 s

Time = 357s

smoothSolver:  Solving for Ux, Initial residual = 0.00116292, Final residual = 3.80187e-05, No Iterations 1
smoothSolver:  Solving for Uy, Initial residual = 0.00646162, Final residual = 0.000267575, No Iterations 1
smoothSolver:  Solving for Uz, Initial residual = 0.0036727, Final residual = 0.000118631, No Iterations 1
DICPCG:  Solving for p, Initial residual = 0.0602393, Final residual = 0.00287247, No Iterations 10
time step continuity errors : sum local = 2.03572, global = -0.649629, cumulative = -8.76459
smoothSolver:  Solving for omega, Initial residual = 0.00124385, Final residual = 4.1524e-05, No Iterations 1
smoothSolver:  Solving for k, Initial residual = 0.0243553, Final residual = 0.000860453, No Iterations 1
ExecutionTime = 6.33224 s  ClockTime = 7 s

Time = 358s

smoothSolver:  Solving for Ux, Initial residual = 0.00114167, Final residual = 3.72123e-05, No Iterations 1
smoothSolver:  Solving for Uy, Initial residual = 0.00646637, Final residual = 0.000266992, No Iterations 1
smoothSolver:  Solving for Uz, Initial residual = 0.00367762, Final residual = 0.000119656, No Iterations 1
DICPCG:  Solving for p, Initial residual = 0.0590013, Final residual = 0.00294487, No Iterations 10
time step continuity errors : sum local = 2.13918, global = -0.516562, cumulative = -9.28115
smoothSolver:  Solving for omega, Initial residual = 0.00123786, Final residual = 4.13895e-05, No Iterations 1
smoothSolver:  Solving for k, Initial residual = 0.0206487, Final residual = 0.000785534, No Iterations 1
ExecutionTime = 6.47492 s  ClockTime = 7 s

Time = 359s

smoothSolver:  Solving for Ux, Initial residual = 0.00112134, Final residual = 3.6571e-05, No Iterations 1
smoothSolver:  Solving for Uy, Initial residual = 0.00648842, Final residual = 0.000267182, No Iterations 1
smoothSolver:  Solving for Uz, Initial residual = 0.00368388, Final residual = 0.000121113, No Iterations 1
DICPCG:  Solving for p, Initial residual = 0.0563564, Final residual = 0.0027129, No Iterations 12
time step continuity errors : sum local = 2.07496, global = -0.225887, cumulative = -9.50704
smoothSolver:  Solving for omega, Initial residual = 0.00123132, Final residual = 4.145e-05, No Iterations 1
smoothSolver:  Solving for k, Initial residual = 0.0248441, Final residual = 0.000899563, No Iterations 1
ExecutionTime = 6.56796 s  ClockTime = 7 s

Time = 360s

smoothSolver:  Solving for Ux, Initial residual = 0.00109947, Final residual = 3.61175e-05, No Iterations 1
smoothSolver:  Solving for Uy, Initial residual = 0.00652247, Final residual = 0.000267426, No Iterations 1
smoothSolver:  Solving for Uz, Initial residual = 0.00369445, Final residual = 0.000122505, No Iterations 1
DICPCG:  Solving for p, Initial residual = 0.0582647, Final residual = 0.00288084, No Iterations 14
time step continuity errors : sum local = 2.17164, global = 0.096474, cumulative = -9.41056
smoothSolver:  Solving for omega, Initial residual = 0.00123206, Final residual = 4.18451e-05, No Iterations 1
smoothSolver:  Solving for k, Initial residual = 0.0242067, Final residual = 0.000882273, No Iterations 1
ExecutionTime = 6.65895 s  ClockTime = 7 s

Time = 361s

smoothSolver:  Solving for Ux, Initial residual = 0.00107989, Final residual = 3.57495e-05, No Iterations 1
smoothSolver:  Solving for Uy, Initial residual = 0.00656334, Final residual = 0.000267425, No Iterations 1
smoothSolver:  Solving for Uz, Initial residual = 0.0036979, Final residual = 0.00012378, No Iterations 1
DICPCG:  Solving for p, Initial residual = 0.0613248, Final residual = 0.00301247, No Iterations 15
time step continuity errors : sum local = 2.16048, global = 0.316599, cumulative = -9.09396
smoothSolver:  Solving for omega, Initial residual = 0.00123817, Final residual = 4.2542e-05, No Iterations 1
smoothSolver:  Solving for k, Initial residual = 0.0249677, Final residual = 0.000918691, No Iterations 1
ExecutionTime = 6.75213 s  ClockTime = 7 s

Time = 362s

smoothSolver:  Solving for Ux, Initial residual = 0.0010677, Final residual = 3.558e-05, No Iterations 1
smoothSolver:  Solving for Uy, Initial residual = 0.00660472, Final residual = 0.000267108, No Iterations 1
smoothSolver:  Solving for Uz, Initial residual = 0.00368312, Final residual = 0.000125051, No Iterations 1
DICPCG:  Solving for p, Initial residual = 0.0625476, Final residual = 0.00310387, No Iterations 8
time step continuity errors : sum local = 2.20744, global = 0.788136, cumulative = -8.30583
smoothSolver:  Solving for omega, Initial residual = 0.00124297, Final residual = 4.32476e-05, No Iterations 1
smoothSolver:  Solving for k, Initial residual = 0.0243702, Final residual = 0.000962931, No Iterations 1
ExecutionTime = 6.83776 s  ClockTime = 7 s

Time = 363s

smoothSolver:  Solving for Ux, Initial residual = 0.00106178, Final residual = 3.53308e-05, No Iterations 1
smoothSolver:  Solving for Uy, Initial residual = 0.00664517, Final residual = 0.000266014, No Iterations 1
smoothSolver:  Solving for Uz, Initial residual = 0.00365821, Final residual = 0.000125769, No Iterations 1
DICPCG:  Solving for p, Initial residual = 0.0640337, Final residual = 0.00307792, No Iterations 20
time step continuity errors : sum local = 2.14403, global = 0.385044, cumulative = -7.92078
smoothSolver:  Solving for omega, Initial residual = 0.00125809, Final residual = 4.43183e-05, No Iterations 1
smoothSolver:  Solving for k, Initial residual = 0.0231576, Final residual = 0.00087627, No Iterations 1
ExecutionTime = 6.93537 s  ClockTime = 7 s

Time = 364s

smoothSolver:  Solving for Ux, Initial residual = 0.00106402, Final residual = 3.54703e-05, No Iterations 1
smoothSolver:  Solving for Uy, Initial residual = 0.00668333, Final residual = 0.00026674, No Iterations 1
smoothSolver:  Solving for Uz, Initial residual = 0.00357833, Final residual = 0.000125424, No Iterations 1
DICPCG:  Solving for p, Initial residual = 0.0659623, Final residual = 0.00283041, No Iterations 21
time step continuity errors : sum local = 1.89946, global = 0.222832, cumulative = -7.69795
smoothSolver:  Solving for omega, Initial residual = 0.00126865, Final residual = 4.52742e-05, No Iterations 1
smoothSolver:  Solving for k, Initial residual = 0.0229317, Final residual = 0.000838318, No Iterations 1
ExecutionTime = 7.03138 s  ClockTime = 7 s

Time = 365s

smoothSolver:  Solving for Ux, Initial residual = 0.00106659, Final residual = 3.55682e-05, No Iterations 1
smoothSolver:  Solving for Uy, Initial residual = 0.00672022, Final residual = 0.000267336, No Iterations 1
smoothSolver:  Solving for Uz, Initial residual = 0.00350257, Final residual = 0.000124905, No Iterations 1
DICPCG:  Solving for p, Initial residual = 0.0686832, Final residual = 0.00331015, No Iterations 8
time step continuity errors : sum local = 2.13515, global = 0.744609, cumulative = -6.95334
smoothSolver:  Solving for omega, Initial residual = 0.00128487, Final residual = 4.67378e-05, No Iterations 1
smoothSolver:  Solving for k, Initial residual = 0.0225148, Final residual = 0.000885398, No Iterations 1
ExecutionTime = 7.11805 s  ClockTime = 7 s

Time = 366s

smoothSolver:  Solving for Ux, Initial residual = 0.00106347, Final residual = 3.54122e-05, No Iterations 1
smoothSolver:  Solving for Uy, Initial residual = 0.00675109, Final residual = 0.000267383, No Iterations 1
smoothSolver:  Solving for Uz, Initial residual = 0.00348466, Final residual = 0.000125505, No Iterations 1
DICPCG:  Solving for p, Initial residual = 0.0684897, Final residual = 0.00323556, No Iterations 9
time step continuity errors : sum local = 2.08604, global = 0.535218, cumulative = -6.41813
smoothSolver:  Solving for omega, Initial residual = 0.00130461, Final residual = 4.87518e-05, No Iterations 1
smoothSolver:  Solving for k, Initial residual = 0.0245971, Final residual = 0.000936824, No Iterations 1
ExecutionTime = 7.2087 s  ClockTime = 8 s

Time = 367s

smoothSolver:  Solving for Ux, Initial residual = 0.00106207, Final residual = 3.52838e-05, No Iterations 1
smoothSolver:  Solving for Uy, Initial residual = 0.00678744, Final residual = 0.00026941, No Iterations 1
smoothSolver:  Solving for Uz, Initial residual = 0.0034727, Final residual = 0.000126097, No Iterations 1
DICPCG:  Solving for p, Initial residual = 0.068322, Final residual = 0.00319141, No Iterations 11
time step continuity errors : sum local = 2.0516, global = 0.358844, cumulative = -6.05928
smoothSolver:  Solving for omega, Initial residual = 0.00132577, Final residual = 5.10404e-05, No Iterations 1
smoothSolver:  Solving for k, Initial residual = 0.0236487, Final residual = 0.000971009, No Iterations 1
ExecutionTime = 7.29514 s  ClockTime = 8 s

Time = 368s

smoothSolver:  Solving for Ux, Initial residual = 0.00106317, Final residual = 3.53688e-05, No Iterations 1
smoothSolver:  Solving for Uy, Initial residual = 0.00684521, Final residual = 0.000272909, No Iterations 1
smoothSolver:  Solving for Uz, Initial residual = 0.00344813, Final residual = 0.000126555, No Iterations 1
DICPCG:  Solving for p, Initial residual = 0.0685248, Final residual = 0.00322434, No Iterations 12
time step continuity errors : sum local = 2.10597, global = 0.245856, cumulative = -5.81343
smoothSolver:  Solving for omega, Initial residual = 0.00135303, Final residual = 5.3349e-05, No Iterations 1
smoothSolver:  Solving for k, Initial residual = 0.0260132, Final residual = 0.00102886, No Iterations 1
ExecutionTime = 7.38251 s  ClockTime = 8 s

Time = 369s

smoothSolver:  Solving for Ux, Initial residual = 0.00107058, Final residual = 3.57215e-05, No Iterations 1
smoothSolver:  Solving for Uy, Initial residual = 0.00692204, Final residual = 0.000276636, No Iterations 1
smoothSolver:  Solving for Uz, Initial residual = 0.00343254, Final residual = 0.000126431, No Iterations 1
DICPCG:  Solving for p, Initial residual = 0.0664491, Final residual = 0.00320647, No Iterations 12
time step continuity errors : sum local = 2.10523, global = 0.113832, cumulative = -5.69959
smoothSolver:  Solving for omega, Initial residual = 0.00138058, Final residual = 5.5581e-05, No Iterations 1
smoothSolver:  Solving for k, Initial residual = 0.0214175, Final residual = 0.00092191, No Iterations 1
ExecutionTime = 7.46331 s  ClockTime = 8 s

Time = 370s

smoothSolver:  Solving for Ux, Initial residual = 0.00108089, Final residual = 3.61572e-05, No Iterations 1
smoothSolver:  Solving for Uy, Initial residual = 0.00700064, Final residual = 0.000280962, No Iterations 1
smoothSolver:  Solving for Uz, Initial residual = 0.00341085, Final residual = 0.000126995, No Iterations 1
DICPCG:  Solving for p, Initial residual = 0.0632434, Final residual = 0.00291369, No Iterations 12
time step continuity errors : sum local = 1.99172, global = -0.0133107, cumulative = -5.7129
smoothSolver:  Solving for omega, Initial residual = 0.00140872, Final residual = 5.75699e-05, No Iterations 1
smoothSolver:  Solving for k, Initial residual = 0.0190515, Final residual = 0.00084868, No Iterations 1
ExecutionTime = 7.55293 s  ClockTime = 8 s

Time = 371s

smoothSolver:  Solving for Ux, Initial residual = 0.00109015, Final residual = 3.64934e-05, No Iterations 1
smoothSolver:  Solving for Uy, Initial residual = 0.00706878, Final residual = 0.000284574, No Iterations 1
smoothSolver:  Solving for Uz, Initial residual = 0.00340345, Final residual = 0.00012797, No Iterations 1
DICPCG:  Solving for p, Initial residual = 0.0630973, Final residual = 0.00309091, No Iterations 11
time step continuity errors : sum local = 2.10148, global = -0.162407, cumulative = -5.87531
smoothSolver:  Solving for omega, Initial residual = 0.0014392, Final residual = 5.92369e-05, No Iterations 1
smoothSolver:  Solving for k, Initial residual = 0.0278964, Final residual = 0.00106247, No Iterations 1
ExecutionTime = 7.64134 s  ClockTime = 8 s

Time = 372s

smoothSolver:  Solving for Ux, Initial residual = 0.00109798, Final residual = 3.67346e-05, No Iterations 1
smoothSolver:  Solving for Uy, Initial residual = 0.00712807, Final residual = 0.000287475, No Iterations 1
smoothSolver:  Solving for Uz, Initial residual = 0.00342093, Final residual = 0.000129878, No Iterations 1
DICPCG:  Solving for p, Initial residual = 0.0639411, Final residual = 0.0031835, No Iterations 11
time step continuity errors : sum local = 2.06967, global = -0.305539, cumulative = -6.18085
smoothSolver:  Solving for omega, Initial residual = 0.00146222, Final residual = 6.05083e-05, No Iterations 1
smoothSolver:  Solving for k, Initial residual = 0.0220222, Final residual = 0.000929474, No Iterations 1
ExecutionTime = 7.73154 s  ClockTime = 8 s

Time = 373s

smoothSolver:  Solving for Ux, Initial residual = 0.00110481, Final residual = 3.68934e-05, No Iterations 1
smoothSolver:  Solving for Uy, Initial residual = 0.00717691, Final residual = 0.000289928, No Iterations 1
smoothSolver:  Solving for Uz, Initial residual = 0.00345192, Final residual = 0.000132039, No Iterations 1
DICPCG:  Solving for p, Initial residual = 0.0642925, Final residual = 0.00287972, No Iterations 12
time step continuity errors : sum local = 1.85002, global = -0.398543, cumulative = -6.57939
smoothSolver:  Solving for omega, Initial residual = 0.00148463, Final residual = 6.16073e-05, No Iterations 1
smoothSolver:  Solving for k, Initial residual = 0.0244649, Final residual = 0.000962324, No Iterations 1
ExecutionTime = 7.81895 s  ClockTime = 8 s

Time = 374s

smoothSolver:  Solving for Ux, Initial residual = 0.00111179, Final residual = 3.70794e-05, No Iterations 1
smoothSolver:  Solving for Uy, Initial residual = 0.00722278, Final residual = 0.000291762, No Iterations 1
smoothSolver:  Solving for Uz, Initial residual = 0.00348696, Final residual = 0.000134036, No Iterations 1
DICPCG:  Solving for p, Initial residual = 0.0630258, Final residual = 0.00288485, No Iterations 12
time step continuity errors : sum local = 1.87023, global = -0.497595, cumulative = -7.07699
smoothSolver:  Solving for omega, Initial residual = 0.00150258, Final residual = 6.24257e-05, No Iterations 1
smoothSolver:  Solving for k, Initial residual = 0.0200365, Final residual = 0.000869314, No Iterations 1
ExecutionTime = 7.91137 s  ClockTime = 8 s

Time = 375s

smoothSolver:  Solving for Ux, Initial residual = 0.00111962, Final residual = 3.73996e-05, No Iterations 1
smoothSolver:  Solving for Uy, Initial residual = 0.00725573, Final residual = 0.000293407, No Iterations 1
smoothSolver:  Solving for Uz, Initial residual = 0.00353492, Final residual = 0.000136421, No Iterations 1
DICPCG:  Solving for p, Initial residual = 0.0630144, Final residual = 0.00291349, No Iterations 12
time step continuity errors : sum local = 1.90492, global = -0.569167, cumulative = -7.64616
smoothSolver:  Solving for omega, Initial residual = 0.00151928, Final residual = 6.30546e-05, No Iterations 1
smoothSolver:  Solving for k, Initial residual = 0.0188466, Final residual = 0.000860398, No Iterations 1
ExecutionTime = 8.00278 s  ClockTime = 8 s

Time = 376s

smoothSolver:  Solving for Ux, Initial residual = 0.00112779, Final residual = 3.77314e-05, No Iterations 1
smoothSolver:  Solving for Uy, Initial residual = 0.00728036, Final residual = 0.000294282, No Iterations 1
smoothSolver:  Solving for Uz, Initial residual = 0.00358243, Final residual = 0.000138902, No Iterations 1
DICPCG:  Solving for p, Initial residual = 0.0632023, Final residual = 0.00311664, No Iterations 8
time step continuity errors : sum local = 2.03221, global = -0.755927, cumulative = -8.40208
smoothSolver:  Solving for omega, Initial residual = 0.00153094, Final residual = 6.37089e-05, No Iterations 1
smoothSolver:  Solving for k, Initial residual = 0.02735, Final residual = 0.00116295, No Iterations 1
ExecutionTime = 8.09031 s  ClockTime = 8 s

Time = 377s

smoothSolver:  Solving for Ux, Initial residual = 0.0011341, Final residual = 3.79284e-05, No Iterations 1
smoothSolver:  Solving for Uy, Initial residual = 0.00728364, Final residual = 0.000294567, No Iterations 1
smoothSolver:  Solving for Uz, Initial residual = 0.00362014, Final residual = 0.000141125, No Iterations 1
DICPCG:  Solving for p, Initial residual = 0.0646938, Final residual = 0.00307974, No Iterations 12
time step continuity errors : sum local = 1.9876, global = -0.64907, cumulative = -9.05115
smoothSolver:  Solving for omega, Initial residual = 0.00154369, Final residual = 6.42258e-05, No Iterations 1
smoothSolver:  Solving for k, Initial residual = 0.0211677, Final residual = 0.000935893, No Iterations 1
ExecutionTime = 8.18542 s  ClockTime = 9 s

Time = 378s

smoothSolver:  Solving for Ux, Initial residual = 0.00114528, Final residual = 3.84215e-05, No Iterations 1
smoothSolver:  Solving for Uy, Initial residual = 0.0073041, Final residual = 0.000294828, No Iterations 1
smoothSolver:  Solving for Uz, Initial residual = 0.00366689, Final residual = 0.000143792, No Iterations 1
DICPCG:  Solving for p, Initial residual = 0.0626552, Final residual = 0.00307479, No Iterations 12
time step continuity errors : sum local = 2.05214, global = -0.628655, cumulative = -9.67981
smoothSolver:  Solving for omega, Initial residual = 0.00155131, Final residual = 6.48618e-05, No Iterations 1
smoothSolver:  Solving for k, Initial residual = 0.0195856, Final residual = 0.000918592, No Iterations 1
ExecutionTime = 8.27794 s  ClockTime = 9 s

Time = 379s

smoothSolver:  Solving for Ux, Initial residual = 0.00115553, Final residual = 3.90221e-05, No Iterations 1
smoothSolver:  Solving for Uy, Initial residual = 0.00731627, Final residual = 0.000295967, No Iterations 1
smoothSolver:  Solving for Uz, Initial residual = 0.00371667, Final residual = 0.000147286, No Iterations 1
DICPCG:  Solving for p, Initial residual = 0.0628246, Final residual = 0.00299942, No Iterations 12
time step continuity errors : sum local = 2.00783, global = -0.554033, cumulative = -10.2338
smoothSolver:  Solving for omega, Initial residual = 0.00155791, Final residual = 6.55841e-05, No Iterations 1
smoothSolver:  Solving for k, Initial residual = 0.0190092, Final residual = 0.000908048, No Iterations 1
ExecutionTime = 8.37029 s  ClockTime = 9 s

Time = 380s

smoothSolver:  Solving for Ux, Initial residual = 0.00116619, Final residual = 3.96158e-05, No Iterations 1
smoothSolver:  Solving for Uy, Initial residual = 0.00733125, Final residual = 0.000296889, No Iterations 1
smoothSolver:  Solving for Uz, Initial residual = 0.00377073, Final residual = 0.000150046, No Iterations 1
DICPCG:  Solving for p, Initial residual = 0.0629979, Final residual = 0.0028512, No Iterations 8
time step continuity errors : sum local = 1.90007, global = -0.652902, cumulative = -10.8867
smoothSolver:  Solving for omega, Initial residual = 0.00156734, Final residual = 6.65058e-05, No Iterations 1
smoothSolver:  Solving for k, Initial residual = 0.025913, Final residual = 0.00111558, No Iterations 1
ExecutionTime = 8.45964 s  ClockTime = 9 s

Time = 381s

smoothSolver:  Solving for Ux, Initial residual = 0.00117784, Final residual = 4.02333e-05, No Iterations 1
smoothSolver:  Solving for Uy, Initial residual = 0.00733497, Final residual = 0.000298709, No Iterations 1
smoothSolver:  Solving for Uz, Initial residual = 0.00380526, Final residual = 0.000153411, No Iterations 1
DICPCG:  Solving for p, Initial residual = 0.063331, Final residual = 0.00298092, No Iterations 8
time step continuity errors : sum local = 1.98255, global = -0.531579, cumulative = -11.4183
smoothSolver:  Solving for omega, Initial residual = 0.0015853, Final residual = 6.7304e-05, No Iterations 1
smoothSolver:  Solving for k, Initial residual = 0.022452, Final residual = 0.00102356, No Iterations 1
ExecutionTime = 8.5493 s  ClockTime = 9 s

Time = 382s

smoothSolver:  Solving for Ux, Initial residual = 0.00119214, Final residual = 4.09134e-05, No Iterations 1
smoothSolver:  Solving for Uy, Initial residual = 0.00734998, Final residual = 0.000301138, No Iterations 1
smoothSolver:  Solving for Uz, Initial residual = 0.00384277, Final residual = 0.000155085, No Iterations 1
DICPCG:  Solving for p, Initial residual = 0.0650033, Final residual = 0.00309777, No Iterations 9
time step continuity errors : sum local = 2.0576, global = -0.333811, cumulative = -11.7521
smoothSolver:  Solving for omega, Initial residual = 0.00161462, Final residual = 6.83872e-05, No Iterations 1
smoothSolver:  Solving for k, Initial residual = 0.0270451, Final residual = 0.00113582, No Iterations 1
ExecutionTime = 8.63599 s  ClockTime = 9 s

Time = 383s

smoothSolver:  Solving for Ux, Initial residual = 0.00120546, Final residual = 4.15901e-05, No Iterations 1
smoothSolver:  Solving for Uy, Initial residual = 0.00738749, Final residual = 0.000304323, No Iterations 1
smoothSolver:  Solving for Uz, Initial residual = 0.00388189, Final residual = 0.000157246, No Iterations 1
DICPCG:  Solving for p, Initial residual = 0.0646995, Final residual = 0.00318181, No Iterations 9
time step continuity errors : sum local = 2.12072, global = -0.123442, cumulative = -11.8756
smoothSolver:  Solving for omega, Initial residual = 0.00164467, Final residual = 6.93934e-05, No Iterations 1
smoothSolver:  Solving for k, Initial residual = 0.022952, Final residual = 0.00103714, No Iterations 1
ExecutionTime = 8.72173 s  ClockTime = 9 s

Time = 384s

smoothSolver:  Solving for Ux, Initial residual = 0.00121551, Final residual = 4.22637e-05, No Iterations 1
smoothSolver:  Solving for Uy, Initial residual = 0.00744125, Final residual = 0.000308165, No Iterations 1
smoothSolver:  Solving for Uz, Initial residual = 0.00392576, Final residual = 0.000158977, No Iterations 1
DICPCG:  Solving for p, Initial residual = 0.0661303, Final residual = 0.00299329, No Iterations 10
time step continuity errors : sum local = 1.98734, global = 0.149256, cumulative = -11.7263
smoothSolver:  Solving for omega, Initial residual = 0.0016671, Final residual = 7.01844e-05, No Iterations 1
smoothSolver:  Solving for k, Initial residual = 0.0270021, Final residual = 0.00112868, No Iterations 1
ExecutionTime = 8.80992 s  ClockTime = 9 s

Time = 385s

smoothSolver:  Solving for Ux, Initial residual = 0.00122362, Final residual = 4.28797e-05, No Iterations 1
smoothSolver:  Solving for Uy, Initial residual = 0.0075089, Final residual = 0.000311823, No Iterations 1
smoothSolver:  Solving for Uz, Initial residual = 0.00397338, Final residual = 0.000161152, No Iterations 1
DICPCG:  Solving for p, Initial residual = 0.065503, Final residual = 0.00296426, No Iterations 11
time step continuity errors : sum local = 1.98406, global = 0.463492, cumulative = -11.2628
smoothSolver:  Solving for omega, Initial residual = 0.00168694, Final residual = 7.10782e-05, No Iterations 1
smoothSolver:  Solving for k, Initial residual = 0.0262541, Final residual = 0.00113841, No Iterations 1
ExecutionTime = 8.90248 s  ClockTime = 9 s

Time = 386s

smoothSolver:  Solving for Ux, Initial residual = 0.0012291, Final residual = 4.33026e-05, No Iterations 1
smoothSolver:  Solving for Uy, Initial residual = 0.00757637, Final residual = 0.00031474, No Iterations 1
smoothSolver:  Solving for Uz, Initial residual = 0.00402857, Final residual = 0.000163627, No Iterations 1
DICPCG:  Solving for p, Initial residual = 0.0668656, Final residual = 0.00320601, No Iterations 20
time step continuity errors : sum local = 2.11753, global = 0.453382, cumulative = -10.8094
smoothSolver:  Solving for omega, Initial residual = 0.00168348, Final residual = 7.20925e-05, No Iterations 1
smoothSolver:  Solving for k, Initial residual = 0.0256425, Final residual = 0.00106046, No Iterations 1
ExecutionTime = 9.00486 s  ClockTime = 9 s

Time = 387s

smoothSolver:  Solving for Ux, Initial residual = 0.00123264, Final residual = 4.35367e-05, No Iterations 1
smoothSolver:  Solving for Uy, Initial residual = 0.00764238, Final residual = 0.000318208, No Iterations 1
smoothSolver:  Solving for Uz, Initial residual = 0.00407554, Final residual = 0.000167088, No Iterations 1
DICPCG:  Solving for p, Initial residual = 0.0682801, Final residual = 0.00307942, No Iterations 20
time step continuity errors : sum local = 1.99908, global = 0.387313, cumulative = -10.4221
smoothSolver:  Solving for omega, Initial residual = 0.0016853, Final residual = 7.28793e-05, No Iterations 1
smoothSolver:  Solving for k, Initial residual = 0.0217037, Final residual = 0.000928315, No Iterations 1
ExecutionTime = 9.10293 s  ClockTime = 9 s

Time = 388s

smoothSolver:  Solving for Ux, Initial residual = 0.0012319, Final residual = 4.37241e-05, No Iterations 1
smoothSolver:  Solving for Uy, Initial residual = 0.00767852, Final residual = 0.000320218, No Iterations 1
smoothSolver:  Solving for Uz, Initial residual = 0.00412162, Final residual = 0.000171899, No Iterations 1
DICPCG:  Solving for p, Initial residual = 0.0716979, Final residual = 0.00352778, No Iterations 10
time step continuity errors : sum local = 2.18299, global = 0.851672, cumulative = -9.57046
smoothSolver:  Solving for omega, Initial residual = 0.00168712, Final residual = 7.36928e-05, No Iterations 1
smoothSolver:  Solving for k, Initial residual = 0.0266442, Final residual = 0.00118744, No Iterations 1
ExecutionTime = 9.18998 s  ClockTime = 10 s

Time = 389s

smoothSolver:  Solving for Ux, Initial residual = 0.00122518, Final residual = 4.39361e-05, No Iterations 1
smoothSolver:  Solving for Uy, Initial residual = 0.00767305, Final residual = 0.000319652, No Iterations 1
smoothSolver:  Solving for Uz, Initial residual = 0.00415104, Final residual = 0.000176219, No Iterations 1
DICPCG:  Solving for p, Initial residual = 0.0705438, Final residual = 0.00336175, No Iterations 19
time step continuity errors : sum local = 2.09975, global = 0.331618, cumulative = -9.23884
smoothSolver:  Solving for omega, Initial residual = 0.00168447, Final residual = 7.46797e-05, No Iterations 1
smoothSolver:  Solving for k, Initial residual = 0.026671, Final residual = 0.00107449, No Iterations 1
ExecutionTime = 9.28626 s  ClockTime = 10 s

Time = 390s

smoothSolver:  Solving for Ux, Initial residual = 0.00121779, Final residual = 4.42447e-05, No Iterations 1
smoothSolver:  Solving for Uy, Initial residual = 0.00768037, Final residual = 0.00032183, No Iterations 1
smoothSolver:  Solving for Uz, Initial residual = 0.00417707, Final residual = 0.000181766, No Iterations 1
DICPCG:  Solving for p, Initial residual = 0.0734263, Final residual = 0.00348916, No Iterations 8
time step continuity errors : sum local = 2.09417, global = 0.822472, cumulative = -8.41637
smoothSolver:  Solving for omega, Initial residual = 0.00168019, Final residual = 7.57161e-05, No Iterations 1
smoothSolver:  Solving for k, Initial residual = 0.0263313, Final residual = 0.00116902, No Iterations 1
ExecutionTime = 9.37058 s  ClockTime = 10 s

Time = 391s

smoothSolver:  Solving for Ux, Initial residual = 0.00120961, Final residual = 4.45619e-05, No Iterations 1
smoothSolver:  Solving for Uy, Initial residual = 0.00764926, Final residual = 0.000320716, No Iterations 1
smoothSolver:  Solving for Uz, Initial residual = 0.00419362, Final residual = 0.000185793, No Iterations 1
DICPCG:  Solving for p, Initial residual = 0.0736427, Final residual = 0.00338705, No Iterations 9
time step continuity errors : sum local = 2.03982, global = 0.778289, cumulative = -7.63808
smoothSolver:  Solving for omega, Initial residual = 0.00168022, Final residual = 7.68629e-05, No Iterations 1
smoothSolver:  Solving for k, Initial residual = 0.0265992, Final residual = 0.00117038, No Iterations 1
ExecutionTime = 9.45652 s  ClockTime = 10 s

Time = 392s

smoothSolver:  Solving for Ux, Initial residual = 0.00120344, Final residual = 4.49514e-05, No Iterations 1
smoothSolver:  Solving for Uy, Initial residual = 0.0076199, Final residual = 0.000320417, No Iterations 1
smoothSolver:  Solving for Uz, Initial residual = 0.00421606, Final residual = 0.000189752, No Iterations 1
DICPCG:  Solving for p, Initial residual = 0.0778494, Final residual = 0.00371776, No Iterations 10
time step continuity errors : sum local = 2.20412, global = 0.798736, cumulative = -6.83934
smoothSolver:  Solving for omega, Initial residual = 0.0016778, Final residual = 7.82178e-05, No Iterations 1
smoothSolver:  Solving for k, Initial residual = 0.0276258, Final residual = 0.00122295, No Iterations 1
ExecutionTime = 9.55112 s  ClockTime = 10 s

Time = 393s

smoothSolver:  Solving for Ux, Initial residual = 0.00120013, Final residual = 4.55045e-05, No Iterations 1
smoothSolver:  Solving for Uy, Initial residual = 0.0076032, Final residual = 0.000320749, No Iterations 1
smoothSolver:  Solving for Uz, Initial residual = 0.00425429, Final residual = 0.000192765, No Iterations 1
DICPCG:  Solving for p, Initial residual = 0.0776071, Final residual = 0.00377494, No Iterations 22
time step continuity errors : sum local = 2.21175, global = 0.272954, cumulative = -6.56639
smoothSolver:  Solving for omega, Initial residual = 0.0016741, Final residual = 7.94272e-05, No Iterations 1
smoothSolver:  Solving for k, Initial residual = 0.0270318, Final residual = 0.00114589, No Iterations 1
ExecutionTime = 9.65965 s  ClockTime = 10 s

Time = 394s

smoothSolver:  Solving for Ux, Initial residual = 0.00120302, Final residual = 4.61791e-05, No Iterations 1
smoothSolver:  Solving for Uy, Initial residual = 0.00762647, Final residual = 0.000324045, No Iterations 1
smoothSolver:  Solving for Uz, Initial residual = 0.00428801, Final residual = 0.000197098, No Iterations 1
DICPCG:  Solving for p, Initial residual = 0.0811135, Final residual = 0.00352131, No Iterations 10
time step continuity errors : sum local = 1.97265, global = 0.530484, cumulative = -6.03591
smoothSolver:  Solving for omega, Initial residual = 0.00167816, Final residual = 8.11013e-05, No Iterations 1
smoothSolver:  Solving for k, Initial residual = 0.0234436, Final residual = 0.00104952, No Iterations 1
ExecutionTime = 9.75182 s  ClockTime = 10 s

Time = 395s

smoothSolver:  Solving for Ux, Initial residual = 0.00120911, Final residual = 4.70378e-05, No Iterations 1
smoothSolver:  Solving for Uy, Initial residual = 0.00760495, Final residual = 0.000325181, No Iterations 1
smoothSolver:  Solving for Uz, Initial residual = 0.00429342, Final residual = 0.000199148, No Iterations 1
DICPCG:  Solving for p, Initial residual = 0.0804587, Final residual = 0.00389754, No Iterations 8
time step continuity errors : sum local = 2.21197, global = 0.370168, cumulative = -5.66574
smoothSolver:  Solving for omega, Initial residual = 0.00167712, Final residual = 8.28699e-05, No Iterations 1
smoothSolver:  Solving for k, Initial residual = 0.0268489, Final residual = 0.00123289, No Iterations 1
ExecutionTime = 9.84202 s  ClockTime = 10 s

Time = 396s

smoothSolver:  Solving for Ux, Initial residual = 0.00121863, Final residual = 4.81871e-05, No Iterations 1
smoothSolver:  Solving for Uy, Initial residual = 0.00759118, Final residual = 0.000327212, No Iterations 1
smoothSolver:  Solving for Uz, Initial residual = 0.00429507, Final residual = 0.000199954, No Iterations 1
DICPCG:  Solving for p, Initial residual = 0.082651, Final residual = 0.0039543, No Iterations 8
time step continuity errors : sum local = 2.23686, global = 0.299339, cumulative = -5.3664
smoothSolver:  Solving for omega, Initial residual = 0.00168372, Final residual = 8.49861e-05, No Iterations 1
smoothSolver:  Solving for k, Initial residual = 0.0234971, Final residual = 0.0011417, No Iterations 1
ExecutionTime = 9.93441 s  ClockTime = 10 s

Time = 397s

smoothSolver:  Solving for Ux, Initial residual = 0.00123329, Final residual = 4.93541e-05, No Iterations 1
smoothSolver:  Solving for Uy, Initial residual = 0.007596, Final residual = 0.000328995, No Iterations 1
smoothSolver:  Solving for Uz, Initial residual = 0.00428438, Final residual = 0.000198883, No Iterations 1
DICPCG:  Solving for p, Initial residual = 0.0836757, Final residual = 0.00395801, No Iterations 9
time step continuity errors : sum local = 2.24736, global = 0.222216, cumulative = -5.14418
smoothSolver:  Solving for omega, Initial residual = 0.00170203, Final residual = 8.72233e-05, No Iterations 1
smoothSolver:  Solving for k, Initial residual = 0.0281033, Final residual = 0.00122626, No Iterations 1
ExecutionTime = 10.0317 s  ClockTime = 10 s

Time = 398s

smoothSolver:  Solving for Ux, Initial residual = 0.00125254, Final residual = 5.04574e-05, No Iterations 1
smoothSolver:  Solving for Uy, Initial residual = 0.00761805, Final residual = 0.000332275, No Iterations 1
smoothSolver:  Solving for Uz, Initial residual = 0.00427408, Final residual = 0.000199239, No Iterations 1
DICPCG:  Solving for p, Initial residual = 0.0819911, Final residual = 0.00394782, No Iterations 11
time step continuity errors : sum local = 2.2985, global = 0.146059, cumulative = -4.99812
smoothSolver:  Solving for omega, Initial residual = 0.00172356, Final residual = 8.96877e-05, No Iterations 1
smoothSolver:  Solving for k, Initial residual = 0.0282635, Final residual = 0.00130918, No Iterations 1
ExecutionTime = 10.1265 s  ClockTime = 11 s

Time = 399s

smoothSolver:  Solving for Ux, Initial residual = 0.00127428, Final residual = 5.15011e-05, No Iterations 1
smoothSolver:  Solving for Uy, Initial residual = 0.00766859, Final residual = 0.000336943, No Iterations 1
smoothSolver:  Solving for Uz, Initial residual = 0.00427161, Final residual = 0.000199837, No Iterations 1
DICPCG:  Solving for p, Initial residual = 0.0802784, Final residual = 0.00371508, No Iterations 14
time step continuity errors : sum local = 2.20624, global = 0.101015, cumulative = -4.89711
smoothSolver:  Solving for omega, Initial residual = 0.00175606, Final residual = 9.23696e-05, No Iterations 1
smoothSolver:  Solving for k, Initial residual = 0.0280675, Final residual = 0.00125698, No Iterations 1
ExecutionTime = 10.2266 s  ClockTime = 11 s

Time = 400s

smoothSolver:  Solving for Ux, Initial residual = 0.00130115, Final residual = 5.26044e-05, No Iterations 1
smoothSolver:  Solving for Uy, Initial residual = 0.00773907, Final residual = 0.000343191, No Iterations 1
[...]
smoothSolver:  Solving for k, Initial residual = 0.0210084, Final residual = 0.00095996, No Iterations 1
ExecutionTime = 68.0124 s  ClockTime = 68 s

Time = 976s

smoothSolver:  Solving for Ux, Initial residual = 0.000703719, Final residual = 3.30368e-05, No Iterations 1
smoothSolver:  Solving for Uy, Initial residual = 0.00325787, Final residual = 0.000154835, No Iterations 1
smoothSolver:  Solving for Uz, Initial residual = 0.00315706, Final residual = 0.000151239, No Iterations 1
DICPCG:  Solving for p, Initial residual = 0.0487002, Final residual = 0.00242945, No Iterations 12
time step continuity errors : sum local = 1.21204, global = 0.0560152, cumulative = -2.83197
smoothSolver:  Solving for omega, Initial residual = 0.00108479, Final residual = 6.9526e-05, No Iterations 1
smoothSolver:  Solving for k, Initial residual = 0.0211885, Final residual = 0.000956296, No Iterations 1
ExecutionTime = 68.1007 s  ClockTime = 68 s

Time = 977s

smoothSolver:  Solving for Ux, Initial residual = 0.000707647, Final residual = 3.32143e-05, No Iterations 1
smoothSolver:  Solving for Uy, Initial residual = 0.0032877, Final residual = 0.000155659, No Iterations 1
smoothSolver:  Solving for Uz, Initial residual = 0.00316681, Final residual = 0.000151166, No Iterations 1
DICPCG:  Solving for p, Initial residual = 0.0488005, Final residual = 0.002357, No Iterations 14
time step continuity errors : sum local = 1.17672, global = 0.0181049, cumulative = -2.81386
smoothSolver:  Solving for omega, Initial residual = 0.00109568, Final residual = 7.07746e-05, No Iterations 1
smoothSolver:  Solving for k, Initial residual = 0.020812, Final residual = 0.000867427, No Iterations 1
ExecutionTime = 68.1917 s  ClockTime = 69 s

Time = 978s

smoothSolver:  Solving for Ux, Initial residual = 0.000713304, Final residual = 3.33442e-05, No Iterations 1
smoothSolver:  Solving for Uy, Initial residual = 0.00332031, Final residual = 0.000156565, No Iterations 1
smoothSolver:  Solving for Uz, Initial residual = 0.00318904, Final residual = 0.000151029, No Iterations 1
DICPCG:  Solving for p, Initial residual = 0.0496995, Final residual = 0.00246422, No Iterations 11
time step continuity errors : sum local = 1.21937, global = 0.100413, cumulative = -2.71345
smoothSolver:  Solving for omega, Initial residual = 0.00111739, Final residual = 7.21612e-05, No Iterations 1
smoothSolver:  Solving for k, Initial residual = 0.0196635, Final residual = 0.000928217, No Iterations 1
ExecutionTime = 68.2839 s  ClockTime = 69 s

Time = 979s

smoothSolver:  Solving for Ux, Initial residual = 0.00072115, Final residual = 3.33913e-05, No Iterations 1
smoothSolver:  Solving for Uy, Initial residual = 0.00335033, Final residual = 0.000157656, No Iterations 1
smoothSolver:  Solving for Uz, Initial residual = 0.0032196, Final residual = 0.000150871, No Iterations 1
DICPCG:  Solving for p, Initial residual = 0.0499068, Final residual = 0.00248289, No Iterations 12
time step continuity errors : sum local = 1.22792, global = 0.130907, cumulative = -2.58254
smoothSolver:  Solving for omega, Initial residual = 0.00114143, Final residual = 7.36218e-05, No Iterations 1
smoothSolver:  Solving for k, Initial residual = 0.0200249, Final residual = 0.00088798, No Iterations 1
ExecutionTime = 68.3721 s  ClockTime = 69 s

Time = 980s

smoothSolver:  Solving for Ux, Initial residual = 0.000728412, Final residual = 3.34591e-05, No Iterations 1
smoothSolver:  Solving for Uy, Initial residual = 0.00338216, Final residual = 0.000158564, No Iterations 1
smoothSolver:  Solving for Uz, Initial residual = 0.00325711, Final residual = 0.000151196, No Iterations 1
DICPCG:  Solving for p, Initial residual = 0.0509021, Final residual = 0.00251237, No Iterations 11
time step continuity errors : sum local = 1.21997, global = 0.213432, cumulative = -2.36911
smoothSolver:  Solving for omega, Initial residual = 0.00116418, Final residual = 7.51083e-05, No Iterations 1
smoothSolver:  Solving for k, Initial residual = 0.0184036, Final residual = 0.000852501, No Iterations 1
ExecutionTime = 68.4635 s  ClockTime = 69 s

Time = 981s

smoothSolver:  Solving for Ux, Initial residual = 0.000734418, Final residual = 3.34273e-05, No Iterations 1
smoothSolver:  Solving for Uy, Initial residual = 0.00341638, Final residual = 0.000159649, No Iterations 1
smoothSolver:  Solving for Uz, Initial residual = 0.00329947, Final residual = 0.00015206, No Iterations 1
DICPCG:  Solving for p, Initial residual = 0.0503662, Final residual = 0.00247347, No Iterations 11
time step continuity errors : sum local = 1.2339, global = 0.324583, cumulative = -2.04453
smoothSolver:  Solving for omega, Initial residual = 0.00118465, Final residual = 7.65082e-05, No Iterations 1
smoothSolver:  Solving for k, Initial residual = 0.0161195, Final residual = 0.000790204, No Iterations 1
ExecutionTime = 68.5548 s  ClockTime = 69 s

Time = 982s

smoothSolver:  Solving for Ux, Initial residual = 0.000737507, Final residual = 3.33969e-05, No Iterations 1
smoothSolver:  Solving for Uy, Initial residual = 0.0034455, Final residual = 0.000160262, No Iterations 1
smoothSolver:  Solving for Uz, Initial residual = 0.00332891, Final residual = 0.000152563, No Iterations 1
DICPCG:  Solving for p, Initial residual = 0.0521634, Final residual = 0.00245889, No Iterations 13
time step continuity errors : sum local = 1.18637, global = 0.38249, cumulative = -1.66204
smoothSolver:  Solving for omega, Initial residual = 0.00120396, Final residual = 7.78756e-05, No Iterations 1
smoothSolver:  Solving for k, Initial residual = 0.0198219, Final residual = 0.000855059, No Iterations 1
ExecutionTime = 68.6441 s  ClockTime = 69 s

Time = 983s

smoothSolver:  Solving for Ux, Initial residual = 0.000739187, Final residual = 3.34386e-05, No Iterations 1
smoothSolver:  Solving for Uy, Initial residual = 0.00346064, Final residual = 0.000160199, No Iterations 1
smoothSolver:  Solving for Uz, Initial residual = 0.00335277, Final residual = 0.000152851, No Iterations 1
DICPCG:  Solving for p, Initial residual = 0.0517948, Final residual = 0.00254231, No Iterations 19
time step continuity errors : sum local = 1.24226, global = 0.248983, cumulative = -1.41305
smoothSolver:  Solving for omega, Initial residual = 0.00122273, Final residual = 7.92119e-05, No Iterations 1
smoothSolver:  Solving for k, Initial residual = 0.021233, Final residual = 0.00098734, No Iterations 1
ExecutionTime = 68.742 s  ClockTime = 69 s

Time = 984s

smoothSolver:  Solving for Ux, Initial residual = 0.000741112, Final residual = 3.36601e-05, No Iterations 1
smoothSolver:  Solving for Uy, Initial residual = 0.00346492, Final residual = 0.000159794, No Iterations 1
smoothSolver:  Solving for Uz, Initial residual = 0.00336871, Final residual = 0.00015403, No Iterations 1
DICPCG:  Solving for p, Initial residual = 0.0529177, Final residual = 0.00248293, No Iterations 19
time step continuity errors : sum local = 1.20018, global = 0.234267, cumulative = -1.17879
smoothSolver:  Solving for omega, Initial residual = 0.0012393, Final residual = 8.04114e-05, No Iterations 1
smoothSolver:  Solving for k, Initial residual = 0.0181741, Final residual = 0.000902762, No Iterations 1
ExecutionTime = 68.8363 s  ClockTime = 69 s

Time = 985s

smoothSolver:  Solving for Ux, Initial residual = 0.000739553, Final residual = 3.38184e-05, No Iterations 1
smoothSolver:  Solving for Uy, Initial residual = 0.0034614, Final residual = 0.000158792, No Iterations 1
smoothSolver:  Solving for Uz, Initial residual = 0.00337836, Final residual = 0.000155265, No Iterations 1
DICPCG:  Solving for p, Initial residual = 0.0544768, Final residual = 0.00251826, No Iterations 9
time step continuity errors : sum local = 1.18148, global = 0.506665, cumulative = -0.672121
smoothSolver:  Solving for omega, Initial residual = 0.00125762, Final residual = 8.17009e-05, No Iterations 1
smoothSolver:  Solving for k, Initial residual = 0.0216246, Final residual = 0.000975333, No Iterations 1
ExecutionTime = 68.9266 s  ClockTime = 69 s

Time = 986s

smoothSolver:  Solving for Ux, Initial residual = 0.000736656, Final residual = 3.39614e-05, No Iterations 1
smoothSolver:  Solving for Uy, Initial residual = 0.00344919, Final residual = 0.00015778, No Iterations 1
smoothSolver:  Solving for Uz, Initial residual = 0.00336815, Final residual = 0.000155789, No Iterations 1
DICPCG:  Solving for p, Initial residual = 0.0543494, Final residual = 0.0026279, No Iterations 17
time step continuity errors : sum local = 1.22668, global = 0.304944, cumulative = -0.367177
smoothSolver:  Solving for omega, Initial residual = 0.00126715, Final residual = 8.24179e-05, No Iterations 1
smoothSolver:  Solving for k, Initial residual = 0.0220463, Final residual = 0.000979811, No Iterations 1
ExecutionTime = 69.0207 s  ClockTime = 69 s

Time = 987s

smoothSolver:  Solving for Ux, Initial residual = 0.000736376, Final residual = 3.39896e-05, No Iterations 1
smoothSolver:  Solving for Uy, Initial residual = 0.00343689, Final residual = 0.000156453, No Iterations 1
smoothSolver:  Solving for Uz, Initial residual = 0.00336047, Final residual = 0.000156628, No Iterations 1
DICPCG:  Solving for p, Initial residual = 0.0549199, Final residual = 0.00266497, No Iterations 16
time step continuity errors : sum local = 1.23082, global = 0.29698, cumulative = -0.0701976
smoothSolver:  Solving for omega, Initial residual = 0.00127835, Final residual = 8.32554e-05, No Iterations 1
smoothSolver:  Solving for k, Initial residual = 0.0203373, Final residual = 0.000922782, No Iterations 1
ExecutionTime = 69.1188 s  ClockTime = 70 s

Time = 988s

smoothSolver:  Solving for Ux, Initial residual = 0.00073928, Final residual = 3.38979e-05, No Iterations 1
smoothSolver:  Solving for Uy, Initial residual = 0.00342384, Final residual = 0.00015545, No Iterations 1
smoothSolver:  Solving for Uz, Initial residual = 0.00335615, Final residual = 0.000157464, No Iterations 1
DICPCG:  Solving for p, Initial residual = 0.0560481, Final residual = 0.00268727, No Iterations 15
time step continuity errors : sum local = 1.2219, global = 0.266185, cumulative = 0.195988
smoothSolver:  Solving for omega, Initial residual = 0.00128607, Final residual = 8.3812e-05, No Iterations 1
smoothSolver:  Solving for k, Initial residual = 0.0214469, Final residual = 0.000944984, No Iterations 1
ExecutionTime = 69.2049 s  ClockTime = 70 s

Time = 989s

smoothSolver:  Solving for Ux, Initial residual = 0.000744747, Final residual = 3.40271e-05, No Iterations 1
smoothSolver:  Solving for Uy, Initial residual = 0.00340846, Final residual = 0.00015454, No Iterations 1
smoothSolver:  Solving for Uz, Initial residual = 0.00334933, Final residual = 0.000158316, No Iterations 1
DICPCG:  Solving for p, Initial residual = 0.0565075, Final residual = 0.00275665, No Iterations 9
time step continuity errors : sum local = 1.25363, global = 0.277499, cumulative = 0.473487
smoothSolver:  Solving for omega, Initial residual = 0.00129459, Final residual = 8.42952e-05, No Iterations 1
smoothSolver:  Solving for k, Initial residual = 0.0212166, Final residual = 0.00101754, No Iterations 1
ExecutionTime = 69.2886 s  ClockTime = 70 s

Time = 990s

smoothSolver:  Solving for Ux, Initial residual = 0.000749869, Final residual = 3.41123e-05, No Iterations 1
smoothSolver:  Solving for Uy, Initial residual = 0.00338569, Final residual = 0.000153611, No Iterations 1
smoothSolver:  Solving for Uz, Initial residual = 0.00333134, Final residual = 0.000158979, No Iterations 1
DICPCG:  Solving for p, Initial residual = 0.0570572, Final residual = 0.00269349, No Iterations 14
time step continuity errors : sum local = 1.22392, global = 0.144875, cumulative = 0.618362
smoothSolver:  Solving for omega, Initial residual = 0.00130419, Final residual = 8.42826e-05, No Iterations 1
smoothSolver:  Solving for k, Initial residual = 0.0216027, Final residual = 0.000960619, No Iterations 1
ExecutionTime = 69.3783 s  ClockTime = 70 s

Time = 991s

smoothSolver:  Solving for Ux, Initial residual = 0.000758601, Final residual = 3.42928e-05, No Iterations 1
smoothSolver:  Solving for Uy, Initial residual = 0.00336783, Final residual = 0.000152626, No Iterations 1
smoothSolver:  Solving for Uz, Initial residual = 0.00335038, Final residual = 0.000160646, No Iterations 1
DICPCG:  Solving for p, Initial residual = 0.0551398, Final residual = 0.00244616, No Iterations 15
time step continuity errors : sum local = 1.1646, global = 0.0795996, cumulative = 0.697961
smoothSolver:  Solving for omega, Initial residual = 0.00131471, Final residual = 8.43288e-05, No Iterations 1
smoothSolver:  Solving for k, Initial residual = 0.0196605, Final residual = 0.000915585, No Iterations 1
ExecutionTime = 69.4708 s  ClockTime = 70 s

Time = 992s

smoothSolver:  Solving for Ux, Initial residual = 0.000766636, Final residual = 3.44191e-05, No Iterations 1
smoothSolver:  Solving for Uy, Initial residual = 0.00335205, Final residual = 0.000151978, No Iterations 1
smoothSolver:  Solving for Uz, Initial residual = 0.0033979, Final residual = 0.000162918, No Iterations 1
DICPCG:  Solving for p, Initial residual = 0.057905, Final residual = 0.00289095, No Iterations 15
time step continuity errors : sum local = 1.30507, global = -0.000142427, cumulative = 0.697819
smoothSolver:  Solving for omega, Initial residual = 0.00132121, Final residual = 8.42081e-05, No Iterations 1
smoothSolver:  Solving for k, Initial residual = 0.0190137, Final residual = 0.000911229, No Iterations 1
ExecutionTime = 69.5661 s  ClockTime = 70 s

Time = 993s

smoothSolver:  Solving for Ux, Initial residual = 0.000770329, Final residual = 3.44161e-05, No Iterations 1
smoothSolver:  Solving for Uy, Initial residual = 0.00333461, Final residual = 0.000151194, No Iterations 1
smoothSolver:  Solving for Uz, Initial residual = 0.00344938, Final residual = 0.000165346, No Iterations 1
DICPCG:  Solving for p, Initial residual = 0.058044, Final residual = 0.00281318, No Iterations 16
time step continuity errors : sum local = 1.27654, global = -0.0877244, cumulative = 0.610095
smoothSolver:  Solving for omega, Initial residual = 0.00132596, Final residual = 8.42719e-05, No Iterations 1
smoothSolver:  Solving for k, Initial residual = 0.0216816, Final residual = 0.000962658, No Iterations 1
ExecutionTime = 69.6631 s  ClockTime = 70 s

Time = 994s

smoothSolver:  Solving for Ux, Initial residual = 0.000769758, Final residual = 3.43846e-05, No Iterations 1
smoothSolver:  Solving for Uy, Initial residual = 0.00331314, Final residual = 0.000150211, No Iterations 1
smoothSolver:  Solving for Uz, Initial residual = 0.00349699, Final residual = 0.000167199, No Iterations 1
DICPCG:  Solving for p, Initial residual = 0.0575942, Final residual = 0.0025861, No Iterations 17
time step continuity errors : sum local = 1.18692, global = -0.164192, cumulative = 0.445903
smoothSolver:  Solving for omega, Initial residual = 0.00132959, Final residual = 8.45155e-05, No Iterations 1
smoothSolver:  Solving for k, Initial residual = 0.0220181, Final residual = 0.000938715, No Iterations 1
ExecutionTime = 69.7644 s  ClockTime = 70 s

Time = 995s

smoothSolver:  Solving for Ux, Initial residual = 0.000766416, Final residual = 3.41685e-05, No Iterations 1
smoothSolver:  Solving for Uy, Initial residual = 0.00328772, Final residual = 0.000148923, No Iterations 1
smoothSolver:  Solving for Uz, Initial residual = 0.0035303, Final residual = 0.000168072, No Iterations 1
DICPCG:  Solving for p, Initial residual = 0.058044, Final residual = 0.00285529, No Iterations 9
time step continuity errors : sum local = 1.31744, global = -0.444229, cumulative = 0.00167371
smoothSolver:  Solving for omega, Initial residual = 0.00133052, Final residual = 8.48523e-05, No Iterations 1
smoothSolver:  Solving for k, Initial residual = 0.0215777, Final residual = 0.00105632, No Iterations 1
ExecutionTime = 69.8506 s  ClockTime = 70 s

Time = 996s

smoothSolver:  Solving for Ux, Initial residual = 0.000756519, Final residual = 3.37289e-05, No Iterations 1
smoothSolver:  Solving for Uy, Initial residual = 0.0032587, Final residual = 0.000147543, No Iterations 1
smoothSolver:  Solving for Uz, Initial residual = 0.00352446, Final residual = 0.000166597, No Iterations 1
DICPCG:  Solving for p, Initial residual = 0.0578376, Final residual = 0.0027406, No Iterations 21
time step continuity errors : sum local = 1.29832, global = -0.231065, cumulative = -0.229391
smoothSolver:  Solving for omega, Initial residual = 0.00133829, Final residual = 8.53924e-05, No Iterations 1
smoothSolver:  Solving for k, Initial residual = 0.0210561, Final residual = 0.00090583, No Iterations 1
ExecutionTime = 69.9519 s  ClockTime = 70 s

Time = 997s

smoothSolver:  Solving for Ux, Initial residual = 0.000748564, Final residual = 3.33016e-05, No Iterations 1
smoothSolver:  Solving for Uy, Initial residual = 0.00323378, Final residual = 0.000146165, No Iterations 1
smoothSolver:  Solving for Uz, Initial residual = 0.00353725, Final residual = 0.000165645, No Iterations 1
DICPCG:  Solving for p, Initial residual = 0.0555835, Final residual = 0.0026163, No Iterations 21
time step continuity errors : sum local = 1.29448, global = -0.218186, cumulative = -0.447577
smoothSolver:  Solving for omega, Initial residual = 0.00134138, Final residual = 8.60249e-05, No Iterations 1
smoothSolver:  Solving for k, Initial residual = 0.0184815, Final residual = 0.000827333, No Iterations 1
ExecutionTime = 70.0472 s  ClockTime = 70 s

Time = 998s

smoothSolver:  Solving for Ux, Initial residual = 0.000741092, Final residual = 3.27983e-05, No Iterations 1
smoothSolver:  Solving for Uy, Initial residual = 0.00320568, Final residual = 0.00014454, No Iterations 1
smoothSolver:  Solving for Uz, Initial residual = 0.00354118, Final residual = 0.000163944, No Iterations 1
DICPCG:  Solving for p, Initial residual = 0.0559592, Final residual = 0.00255869, No Iterations 10
time step continuity errors : sum local = 1.27379, global = -0.614097, cumulative = -1.06167
smoothSolver:  Solving for omega, Initial residual = 0.00134142, Final residual = 8.67727e-05, No Iterations 1
smoothSolver:  Solving for k, Initial residual = 0.0199556, Final residual = 0.00098051, No Iterations 1
ExecutionTime = 70.1418 s  ClockTime = 71 s

Time = 999s

smoothSolver:  Solving for Ux, Initial residual = 0.000729315, Final residual = 3.23342e-05, No Iterations 1
smoothSolver:  Solving for Uy, Initial residual = 0.00316962, Final residual = 0.000142445, No Iterations 1
smoothSolver:  Solving for Uz, Initial residual = 0.00351024, Final residual = 0.000160944, No Iterations 1
DICPCG:  Solving for p, Initial residual = 0.0551383, Final residual = 0.00274744, No Iterations 10
time step continuity errors : sum local = 1.41537, global = -0.632916, cumulative = -1.69459
smoothSolver:  Solving for omega, Initial residual = 0.00134241, Final residual = 8.75641e-05, No Iterations 1
smoothSolver:  Solving for k, Initial residual = 0.0181962, Final residual = 0.000920717, No Iterations 1
ExecutionTime = 70.2344 s  ClockTime = 71 s

Time = 1000s

smoothSolver:  Solving for Ux, Initial residual = 0.00071945, Final residual = 3.19045e-05, No Iterations 1
smoothSolver:  Solving for Uy, Initial residual = 0.00313849, Final residual = 0.00014017, No Iterations 1
smoothSolver:  Solving for Uz, Initial residual = 0.00346567, Final residual = 0.000157093, No Iterations 1
DICPCG:  Solving for p, Initial residual = 0.0543521, Final residual = 0.00271082, No Iterations 12
time step continuity errors : sum local = 1.45856, global = -0.596636, cumulative = -2.29123
smoothSolver:  Solving for omega, Initial residual = 0.00134405, Final residual = 8.81834e-05, No Iterations 1
smoothSolver:  Solving for k, Initial residual = 0.0206128, Final residual = 0.000921291, No Iterations 1
ExecutionTime = 70.5551 s  ClockTime = 71 s

End

