/*---------------------------------------------------------------------------*\
  =========                 |
  \\      /  F ield         | OpenFOAM: The Open Source CFD Toolbox
   \\    /   O peration     | Website:  https://openfoam.org
    \\  /    A nd           | Version:  13
     \\/     M anipulation  |
\*---------------------------------------------------------------------------*/
Build  : 13-cde978a97c93
Exec   : foamRun
Date   : Feb 26 2026
Time   : 16:53:42
Host   : "JOO-DESKTOP"
PID    : 65584
I/O    : uncollated
Case   : /home/joo/OpenFOAM/joo-13/run/trackB_propellerIGE_v13/cases/baseCase_baselineHover
nProcs : 1
sigFpe : Enabling floating point exception trapping (FOAM_SIGFPE).
fileModificationChecking : Monitoring run-time modified files using timeStampMaster (fileModificationSkew 10)
allowSystemOperations : Allowing user-supplied system call operations

// * * * * * * * * * * * * * * * * * * * * * * * * * * * * * * * * * * * * * //
Create time

Create mesh for time = 0

Selecting solver incompressibleFluid
Selecting viscosity model constant
Selecting turbulence model type RAS
    Selecting RAS turbulence model kOmegaSST
No MRF models present

Selecting patchDistMethod meshWave
Creating fvModels from "constant/fvModels"

Selecting finite volume model type propellerDisk
    Name: diskSource

SIMPLE: Convergence criteria found
        p: tolerance 0.0001
        U: tolerance 1e-05
        k: tolerance 1e-05
        omega: tolerance 1e-05


SIMPLE: Operating solver in steady-state mode with 1 outer corrector
SIMPLE: Operating solver in SIMPLE mode



Starting time loop

Reading set description:
    line

volFieldValue Uavg_propeller read:
    number of cells = 104
    volume = 0.0126953
    operation = volAverage

surfaceFieldValue phi_farField read:
    number of faces = 24576
    area = 48
    operation = orientedSum

surfaceFieldValue phi_top read:
    number of faces = 4096
    area = 16
    operation = orientedSum

volFieldValue Uavg_propeller write:
    volAverage(propeller) of U = (0 0 -0.01)

surfaceFieldValue phi_farField write:
    orientedSum(farField) of phi = 0

surfaceFieldValue phi_top write:
    orientedSum(top) of phi = 0

Time = 1s

--> FOAM Warning : 
    From function void Foam::Function1s::Table<Type>::checkX(Foam::scalar) const [with Type = Foam::Vector2D<double>; Foam::scalar = double]
    in file lnInclude/Table.C at line 107
    "value (-97.489) underflow"

smoothSolver:  Solving for Ux, Initial residual = 1, Final residual = 0.0295823, No Iterations 1
smoothSolver:  Solving for Uy, Initial residual = 1, Final residual = 0.0295823, No Iterations 1
smoothSolver:  Solving for Uz, Initial residual = 1, Final residual = 0.0301261, No Iterations 1
DICPCG:  Solving for p, Initial residual = 1, Final residual = 0.0448508, No Iterations 28
time step continuity errors : sum local = 0.035926, global = -0.00873833, cumulative = -0.00873833
smoothSolver:  Solving for omega, Initial residual = 0.100035, Final residual = 0.0045417, No Iterations 1
smoothSolver:  Solving for k, Initial residual = 1, Final residual = 0.0466913, No Iterations 1
ExecutionTime = 3.86793 s  ClockTime = 4 s

volFieldValue Uavg_propeller write:
    volAverage(propeller) of U = (-0.00155262 -0.00130399 -83.1805)

surfaceFieldValue phi_farField write:
    orientedSum(farField) of phi = 0.11858

surfaceFieldValue phi_top write:
    orientedSum(top) of phi = -0.53802

Time = 2s

--> FOAM Warning : 
    From function void Foam::Function1s::Table<Type>::checkX(Foam::scalar) const [with Type = Foam::Vector2D<double>; Foam::scalar = double]
    in file lnInclude/Table.C at line 107
    "value (27.7268) overflow"

--> FOAM Warning : 
    From function void Foam::Function1s::Table<Type>::checkX(Foam::scalar) const [with Type = Foam::Vector2D<double>; Foam::scalar = double]
    in file lnInclude/Table.C at line 107
    "value (27.7256) overflow"

smoothSolver:  Solving for Ux, Initial residual = 0.255649, Final residual = 0.012671, No Iterations 1
smoothSolver:  Solving for Uy, Initial residual = 0.255649, Final residual = 0.0124165, No Iterations 1
smoothSolver:  Solving for Uz, Initial residual = 0.263669, Final residual = 0.0133338, No Iterations 1
DICPCG:  Solving for p, Initial residual = 0.972811, Final residual = 0.04498, No Iterations 38
time step continuity errors : sum local = 0.031087, global = -0.00598708, cumulative = -0.0147254
smoothSolver:  Solving for omega, Initial residual = 0.0311503, Final residual = 0.00163237, No Iterations 1
smoothSolver:  Solving for k, Initial residual = 0.0931819, Final residual = 0.00491043, No Iterations 1
ExecutionTime = 4.74616 s  ClockTime = 5 s

volFieldValue Uavg_propeller write:
    volAverage(propeller) of U = (0.0333472 -0.00220923 -57.1939)

surfaceFieldValue phi_farField write:
    orientedSum(farField) of phi = 0.809602

surfaceFieldValue phi_top write:
    orientedSum(top) of phi = -1.09698

Time = 3s

--> FOAM Warning : 
    From function void Foam::Function1s::Table<Type>::checkX(Foam::scalar) const [with Type = Foam::Vector2D<double>; Foam::scalar = double]
    in file lnInclude/Table.C at line 107
    "value (19.0646) overflow"

--> FOAM Warning : 
    From function void Foam::Function1s::Table<Type>::checkX(Foam::scalar) const [with Type = Foam::Vector2D<double>; Foam::scalar = double]
    in file lnInclude/Table.C at line 107
    "value (19.0628) overflow"

smoothSolver:  Solving for Ux, Initial residual = 0.222258, Final residual = 0.01005, No Iterations 1
smoothSolver:  Solving for Uy, Initial residual = 0.222177, Final residual = 0.00975607, No Iterations 1
smoothSolver:  Solving for Uz, Initial residual = 0.231276, Final residual = 0.00966227, No Iterations 1
DICPCG:  Solving for p, Initial residual = 0.10029, Final residual = 0.00492411, No Iterations 37
time step continuity errors : sum local = 0.0244529, global = -0.00342909, cumulative = -0.0181545
smoothSolver:  Solving for omega, Initial residual = 0.0406044, Final residual = 0.00215384, No Iterations 1
smoothSolver:  Solving for k, Initial residual = 0.113588, Final residual = 0.00598164, No Iterations 1
ExecutionTime = 5.61359 s  ClockTime = 6 s

volFieldValue Uavg_propeller write:
    volAverage(propeller) of U = (0.0446718 -0.0226495 -34.9074)

surfaceFieldValue phi_farField write:
    orientedSum(farField) of phi = 0.84729

surfaceFieldValue phi_top write:
    orientedSum(top) of phi = -1.01189

Time = 4s

--> FOAM Warning : 
    From function void Foam::Function1s::Table<Type>::checkX(Foam::scalar) const [with Type = Foam::Vector2D<double>; Foam::scalar = double]
    in file lnInclude/Table.C at line 107
    "value (11.6358) overflow"

--> FOAM Warning : 
    From function void Foam::Function1s::Table<Type>::checkX(Foam::scalar) const [with Type = Foam::Vector2D<double>; Foam::scalar = double]
    in file lnInclude/Table.C at line 107
    "value (11.6328) overflow"

smoothSolver:  Solving for Ux, Initial residual = 0.210165, Final residual = 0.0106081, No Iterations 1
smoothSolver:  Solving for Uy, Initial residual = 0.209981, Final residual = 0.0103932, No Iterations 1
smoothSolver:  Solving for Uz, Initial residual = 0.214259, Final residual = 0.009438, No Iterations 1
DICPCG:  Solving for p, Initial residual = 0.0455215, Final residual = 0.00213187, No Iterations 30
time step continuity errors : sum local = 0.0193752, global = -0.00609371, cumulative = -0.0242482
smoothSolver:  Solving for omega, Initial residual = 0.0442755, Final residual = 0.00230464, No Iterations 1
smoothSolver:  Solving for k, Initial residual = 0.134944, Final residual = 0.00700764, No Iterations 1
ExecutionTime = 6.37087 s  ClockTime = 7 s

volFieldValue Uavg_propeller write:
    volAverage(propeller) of U = (0.0505765 -0.0520315 -21.5323)

surfaceFieldValue phi_farField write:
    orientedSum(farField) of phi = 0.845958

surfaceFieldValue phi_top write:
    orientedSum(top) of phi = -1.13846

Time = 5s

--> FOAM Warning : 
    From function void Foam::Function1s::Table<Type>::checkX(Foam::scalar) const [with Type = Foam::Vector2D<double>; Foam::scalar = double]
    in file lnInclude/Table.C at line 107
    "value (7.17744) overflow"

--> FOAM Warning : 
    From function void Foam::Function1s::Table<Type>::checkX(Foam::scalar) const [with Type = Foam::Vector2D<double>; Foam::scalar = double]
    in file lnInclude/Table.C at line 107
    "value (7.17254) overflow"

smoothSolver:  Solving for Ux, Initial residual = 0.158644, Final residual = 0.00814876, No Iterations 1
smoothSolver:  Solving for Uy, Initial residual = 0.158524, Final residual = 0.00796007, No Iterations 1
smoothSolver:  Solving for Uz, Initial residual = 0.179119, Final residual = 0.00795989, No Iterations 1
DICPCG:  Solving for p, Initial residual = 0.0356933, Final residual = 0.00176659, No Iterations 28
time step continuity errors : sum local = 0.0274298, global = 0.00866743, cumulative = -0.0155808
smoothSolver:  Solving for omega, Initial residual = 0.0507368, Final residual = 0.00257821, No Iterations 1
smoothSolver:  Solving for k, Initial residual = 0.158139, Final residual = 0.00813987, No Iterations 1
ExecutionTime = 7.17209 s  ClockTime = 8 s

volFieldValue Uavg_propeller write:
    volAverage(propeller) of U = (0.0797528 -0.0961772 -17.3444)

surfaceFieldValue phi_farField write:
    orientedSum(farField) of phi = 1.46923

surfaceFieldValue phi_top write:
    orientedSum(top) of phi = -1.05319

Time = 6s

--> FOAM Warning : 
    From function void Foam::Function1s::Table<Type>::checkX(Foam::scalar) const [with Type = Foam::Vector2D<double>; Foam::scalar = double]
    in file lnInclude/Table.C at line 107
    "value (5.78146) overflow"

--> FOAM Warning : 
    From function void Foam::Function1s::Table<Type>::checkX(Foam::scalar) const [with Type = Foam::Vector2D<double>; Foam::scalar = double]
    in file lnInclude/Table.C at line 107
    "value (5.77539) overflow"

smoothSolver:  Solving for Ux, Initial residual = 0.111131, Final residual = 0.00572666, No Iterations 1
smoothSolver:  Solving for Uy, Initial residual = 0.111199, Final residual = 0.00560102, No Iterations 1
smoothSolver:  Solving for Uz, Initial residual = 0.125916, Final residual = 0.00580434, No Iterations 1
DICPCG:  Solving for p, Initial residual = 0.0269358, Final residual = 0.00132009, No Iterations 31
time step continuity errors : sum local = 0.0312393, global = 0.00982886, cumulative = -0.00575192
smoothSolver:  Solving for omega, Initial residual = 0.0544804, Final residual = 0.0027279, No Iterations 1
smoothSolver:  Solving for k, Initial residual = 0.18964, Final residual = 0.00973213, No Iterations 1
ExecutionTime = 7.98874 s  ClockTime = 9 s

volFieldValue Uavg_propeller write:
    volAverage(propeller) of U = (0.0986342 -0.0946963 -17.9275)

surfaceFieldValue phi_farField write:
    orientedSum(farField) of phi = 1.57086

surfaceFieldValue phi_top write:
    orientedSum(top) of phi = -1.09908

Time = 7s

--> FOAM Warning : 
    From function void Foam::Function1s::Table<Type>::checkX(Foam::scalar) const [with Type = Foam::Vector2D<double>; Foam::scalar = double]
    in file lnInclude/Table.C at line 107
    "value (5.97585) overflow"

--> FOAM Warning : 
    From function void Foam::Function1s::Table<Type>::checkX(Foam::scalar) const [with Type = Foam::Vector2D<double>; Foam::scalar = double]
    in file lnInclude/Table.C at line 107
    "value (5.96997) overflow"

smoothSolver:  Solving for Ux, Initial residual = 0.0777787, Final residual = 0.00394216, No Iterations 1
smoothSolver:  Solving for Uy, Initial residual = 0.0779141, Final residual = 0.00391988, No Iterations 1
smoothSolver:  Solving for Uz, Initial residual = 0.0724224, Final residual = 0.00347878, No Iterations 1
DICPCG:  Solving for p, Initial residual = 0.0184805, Final residual = 0.000920978, No Iterations 32
time step continuity errors : sum local = 0.0298396, global = 0.0112507, cumulative = 0.00549875
smoothSolver:  Solving for omega, Initial residual = 0.0547442, Final residual = 0.00274996, No Iterations 1
smoothSolver:  Solving for k, Initial residual = 0.180868, Final residual = 0.00929844, No Iterations 1
ExecutionTime = 8.79769 s  ClockTime = 9 s

volFieldValue Uavg_propeller write:
    volAverage(propeller) of U = (0.11723 -0.0709216 -18.7311)

surfaceFieldValue phi_farField write:
    orientedSum(farField) of phi = 1.67854

surfaceFieldValue phi_top write:
    orientedSum(top) of phi = -1.13851

Time = 8s

--> FOAM Warning : 
    From function void Foam::Function1s::Table<Type>::checkX(Foam::scalar) const [with Type = Foam::Vector2D<double>; Foam::scalar = double]
    in file lnInclude/Table.C at line 107
    "value (6.2437) overflow"

--> FOAM Warning : 
    From function void Foam::Function1s::Table<Type>::checkX(Foam::scalar) const [with Type = Foam::Vector2D<double>; Foam::scalar = double]
    in file lnInclude/Table.C at line 107
    "value (6.23807) overflow"

smoothSolver:  Solving for Ux, Initial residual = 0.0874365, Final residual = 0.00423609, No Iterations 1
smoothSolver:  Solving for Uy, Initial residual = 0.0876703, Final residual = 0.00431442, No Iterations 1
smoothSolver:  Solving for Uz, Initial residual = 0.0583091, Final residual = 0.00251874, No Iterations 1
DICPCG:  Solving for p, Initial residual = 0.0119484, Final residual = 0.000567978, No Iterations 32
time step continuity errors : sum local = 0.0231954, global = 0.00974991, cumulative = 0.0152487
smoothSolver:  Solving for omega, Initial residual = 0.0512384, Final residual = 0.00260933, No Iterations 1
smoothSolver:  Solving for k, Initial residual = 0.152094, Final residual = 0.00781017, No Iterations 1
ExecutionTime = 9.64935 s  ClockTime = 10 s

volFieldValue Uavg_propeller write:
    volAverage(propeller) of U = (0.121317 -0.0307921 -17.9244)

surfaceFieldValue phi_farField write:
    orientedSum(farField) of phi = 1.65422

surfaceFieldValue phi_top write:
    orientedSum(top) of phi = -1.18623

Time = 9s

--> FOAM Warning : 
    From function void Foam::Function1s::Table<Type>::checkX(Foam::scalar) const [with Type = Foam::Vector2D<double>; Foam::scalar = double]
    in file lnInclude/Table.C at line 107
    "value (5.97481) overflow"

--> FOAM Warning : 
    From function void Foam::Function1s::Table<Type>::checkX(Foam::scalar) const [with Type = Foam::Vector2D<double>; Foam::scalar = double]
    in file lnInclude/Table.C at line 107
    "value (5.96893) overflow"

smoothSolver:  Solving for Ux, Initial residual = 0.10707, Final residual = 0.00518931, No Iterations 1
smoothSolver:  Solving for Uy, Initial residual = 0.107261, Final residual = 0.00532873, No Iterations 1
smoothSolver:  Solving for Uz, Initial residual = 0.0628338, Final residual = 0.00257188, No Iterations 1
DICPCG:  Solving for p, Initial residual = 0.0098235, Final residual = 0.00042554, No Iterations 28
time step continuity errors : sum local = 0.0176468, global = 0.00136573, cumulative = 0.0166144
smoothSolver:  Solving for omega, Initial residual = 0.045588, Final residual = 0.00235068, No Iterations 1
smoothSolver:  Solving for k, Initial residual = 0.123525, Final residual = 0.00632136, No Iterations 1
ExecutionTime = 10.4909 s  ClockTime = 11 s

volFieldValue Uavg_propeller write:
    volAverage(propeller) of U = (0.115006 0.00882235 -15.4591)

surfaceFieldValue phi_farField write:
    orientedSum(farField) of phi = 1.3928

surfaceFieldValue phi_top write:
    orientedSum(top) of phi = -1.32724

Time = 10s

--> FOAM Warning : 
    From function void Foam::Function1s::Table<Type>::checkX(Foam::scalar) const [with Type = Foam::Vector2D<double>; Foam::scalar = double]
    in file lnInclude/Table.C at line 107
    "value (5.15303) overflow"

--> FOAM Warning : 
    From function void Foam::Function1s::Table<Type>::checkX(Foam::scalar) const [with Type = Foam::Vector2D<double>; Foam::scalar = double]
    in file lnInclude/Table.C at line 107
    "value (5.14621) overflow"

smoothSolver:  Solving for Ux, Initial residual = 0.114423, Final residual = 0.00561555, No Iterations 1
smoothSolver:  Solving for Uy, Initial residual = 0.114506, Final residual = 0.00576496, No Iterations 1
smoothSolver:  Solving for Uz, Initial residual = 0.059063, Final residual = 0.00240612, No Iterations 1
DICPCG:  Solving for p, Initial residual = 0.0137623, Final residual = 0.00067892, No Iterations 21
time step continuity errors : sum local = 0.020462, global = -0.00586371, cumulative = 0.0107507
smoothSolver:  Solving for omega, Initial residual = 0.0415512, Final residual = 0.00216967, No Iterations 1
smoothSolver:  Solving for k, Initial residual = 0.103263, Final residual = 0.00525026, No Iterations 1
ExecutionTime = 11.2992 s  ClockTime = 12 s

volFieldValue Uavg_propeller write:
    volAverage(propeller) of U = (0.102403 0.0384236 -12.2187)

surfaceFieldValue phi_farField write:
    orientedSum(farField) of phi = 1.02051

surfaceFieldValue phi_top write:
    orientedSum(top) of phi = -1.30197

Time = 11s

--> FOAM Warning : 
    From function void Foam::Function1s::Table<Type>::checkX(Foam::scalar) const [with Type = Foam::Vector2D<double>; Foam::scalar = double]
    in file lnInclude/Table.C at line 107
    "value (4.0729) overflow"

--> FOAM Warning : 
    From function void Foam::Function1s::Table<Type>::checkX(Foam::scalar) const [with Type = Foam::Vector2D<double>; Foam::scalar = double]
    in file lnInclude/Table.C at line 107
    "value (4.06428) overflow"

smoothSolver:  Solving for Ux, Initial residual = 0.103721, Final residual = 0.00509638, No Iterations 1
smoothSolver:  Solving for Uy, Initial residual = 0.103724, Final residual = 0.0052117, No Iterations 1
smoothSolver:  Solving for Uz, Initial residual = 0.0480365, Final residual = 0.00201038, No Iterations 1
DICPCG:  Solving for p, Initial residual = 0.0149377, Final residual = 0.000720925, No Iterations 29
time step continuity errors : sum local = 0.0194698, global = -0.00576899, cumulative = 0.0049817
smoothSolver:  Solving for omega, Initial residual = 0.0379371, Final residual = 0.00200338, No Iterations 1
smoothSolver:  Solving for k, Initial residual = 0.0880222, Final residual = 0.00445509, No Iterations 1
ExecutionTime = 12.1206 s  ClockTime = 13 s

volFieldValue Uavg_propeller write:
    volAverage(propeller) of U = (0.0869835 0.0536297 -9.25472)

surfaceFieldValue phi_farField write:
    orientedSum(farField) of phi = 1.09638

surfaceFieldValue phi_top write:
    orientedSum(top) of phi = -1.37329

Time = 12s

--> FOAM Warning : 
    From function void Foam::Function1s::Table<Type>::checkX(Foam::scalar) const [with Type = Foam::Vector2D<double>; Foam::scalar = double]
    in file lnInclude/Table.C at line 107
    "value (3.08491) overflow"

--> FOAM Warning : 
    From function void Foam::Function1s::Table<Type>::checkX(Foam::scalar) const [with Type = Foam::Vector2D<double>; Foam::scalar = double]
    in file lnInclude/Table.C at line 107
    "value (3.07352) overflow"

smoothSolver:  Solving for Ux, Initial residual = 0.0851674, Final residual = 0.00415385, No Iterations 1
smoothSolver:  Solving for Uy, Initial residual = 0.0850724, Final residual = 0.00419045, No Iterations 1
smoothSolver:  Solving for Uz, Initial residual = 0.0444054, Final residual = 0.00197753, No Iterations 1
DICPCG:  Solving for p, Initial residual = 0.0196477, Final residual = 0.000910332, No Iterations 30
time step continuity errors : sum local = 0.0164946, global = -0.00443685, cumulative = 0.000544845
smoothSolver:  Solving for omega, Initial residual = 0.0354366, Final residual = 0.00188653, No Iterations 1
smoothSolver:  Solving for k, Initial residual = 0.078565, Final residual = 0.00394761, No Iterations 1
ExecutionTime = 12.9647 s  ClockTime = 14 s

volFieldValue Uavg_propeller write:
    volAverage(propeller) of U = (0.0713745 0.0538339 -7.32024)

surfaceFieldValue phi_farField write:
    orientedSum(farField) of phi = 1.13131

surfaceFieldValue phi_top write:
    orientedSum(top) of phi = -1.34428

Time = 13s

--> FOAM Warning : 
    From function void Foam::Function1s::Table<Type>::checkX(Foam::scalar) const [with Type = Foam::Vector2D<double>; Foam::scalar = double]
    in file lnInclude/Table.C at line 107
    "value (2.44008) overflow"

--> FOAM Warning : 
    From function void Foam::Function1s::Table<Type>::checkX(Foam::scalar) const [with Type = Foam::Vector2D<double>; Foam::scalar = double]
    in file lnInclude/Table.C at line 107
    "value (2.42569) overflow"

smoothSolver:  Solving for Ux, Initial residual = 0.0704469, Final residual = 0.00338885, No Iterations 1
smoothSolver:  Solving for Uy, Initial residual = 0.070315, Final residual = 0.00335708, No Iterations 1
smoothSolver:  Solving for Uz, Initial residual = 0.0504769, Final residual = 0.00226697, No Iterations 1
DICPCG:  Solving for p, Initial residual = 0.0246559, Final residual = 0.00115786, No Iterations 28
time step continuity errors : sum local = 0.0145622, global = -0.00240941, cumulative = -0.00186457
smoothSolver:  Solving for omega, Initial residual = 0.0334424, Final residual = 0.00179182, No Iterations 1
smoothSolver:  Solving for k, Initial residual = 0.072177, Final residual = 0.00360367, No Iterations 1
ExecutionTime = 13.774 s  ClockTime = 14 s

volFieldValue Uavg_propeller write:
    volAverage(propeller) of U = (0.0587754 0.0429958 -6.65188)

surfaceFieldValue phi_farField write:
    orientedSum(farField) of phi = 1.17307

surfaceFieldValue phi_top write:
    orientedSum(top) of phi = -1.28873

Time = 14s

--> FOAM Warning : 
    From function void Foam::Function1s::Table<Type>::checkX(Foam::scalar) const [with Type = Foam::Vector2D<double>; Foam::scalar = double]
    in file lnInclude/Table.C at line 107
    "value (2.21729) overflow"

--> FOAM Warning : 
    From function void Foam::Function1s::Table<Type>::checkX(Foam::scalar) const [with Type = Foam::Vector2D<double>; Foam::scalar = double]
    in file lnInclude/Table.C at line 107
    "value (2.20146) overflow"

smoothSolver:  Solving for Ux, Initial residual = 0.0633747, Final residual = 0.00302244, No Iterations 1
smoothSolver:  Solving for Uy, Initial residual = 0.0632826, Final residual = 0.00296743, No Iterations 1
smoothSolver:  Solving for Uz, Initial residual = 0.0556442, Final residual = 0.00241494, No Iterations 1
DICPCG:  Solving for p, Initial residual = 0.0306603, Final residual = 0.00145271, No Iterations 21
time step continuity errors : sum local = 0.0141984, global = 0.000944145, cumulative = -0.000920421
smoothSolver:  Solving for omega, Initial residual = 0.0318152, Final residual = 0.00171354, No Iterations 1
smoothSolver:  Solving for k, Initial residual = 0.0674673, Final residual = 0.00334927, No Iterations 1
ExecutionTime = 14.5261 s  ClockTime = 15 s

volFieldValue Uavg_propeller write:
    volAverage(propeller) of U = (0.0521556 0.0277971 -6.97625)

surfaceFieldValue phi_farField write:
    orientedSum(farField) of phi = 1.24812

surfaceFieldValue phi_top write:
    orientedSum(top) of phi = -1.2028

Time = 15s

--> FOAM Warning : 
    From function void Foam::Function1s::Table<Type>::checkX(Foam::scalar) const [with Type = Foam::Vector2D<double>; Foam::scalar = double]
    in file lnInclude/Table.C at line 107
    "value (2.32542) overflow"

--> FOAM Warning : 
    From function void Foam::Function1s::Table<Type>::checkX(Foam::scalar) const [with Type = Foam::Vector2D<double>; Foam::scalar = double]
    in file lnInclude/Table.C at line 107
    "value (2.31032) overflow"

smoothSolver:  Solving for Ux, Initial residual = 0.0576575, Final residual = 0.00278609, No Iterations 1
smoothSolver:  Solving for Uy, Initial residual = 0.0575369, Final residual = 0.00274294, No Iterations 1
smoothSolver:  Solving for Uz, Initial residual = 0.0544223, Final residual = 0.00231319, No Iterations 1
DICPCG:  Solving for p, Initial residual = 0.0262422, Final residual = 0.00130421, No Iterations 23
time step continuity errors : sum local = 0.0151327, global = 0.00601645, cumulative = 0.00509603
smoothSolver:  Solving for omega, Initial residual = 0.0298652, Final residual = 0.00162032, No Iterations 1
smoothSolver:  Solving for k, Initial residual = 0.0627145, Final residual = 0.00309271, No Iterations 1
ExecutionTime = 15.2541 s  ClockTime = 16 s

volFieldValue Uavg_propeller write:
    volAverage(propeller) of U = (0.0521652 0.0147647 -7.70799)

surfaceFieldValue phi_farField write:
    orientedSum(farField) of phi = 1.53908

surfaceFieldValue phi_top write:
    orientedSum(top) of phi = -1.25029

Time = 16s

--> FOAM Warning : 
    From function void Foam::Function1s::Table<Type>::checkX(Foam::scalar) const [with Type = Foam::Vector2D<double>; Foam::scalar = double]
    in file lnInclude/Table.C at line 107
    "value (2.56933) overflow"

--> FOAM Warning : 
    From function void Foam::Function1s::Table<Type>::checkX(Foam::scalar) const [with Type = Foam::Vector2D<double>; Foam::scalar = double]
    in file lnInclude/Table.C at line 107
    "value (2.55566) overflow"

smoothSolver:  Solving for Ux, Initial residual = 0.0517461, Final residual = 0.00254717, No Iterations 1
smoothSolver:  Solving for Uy, Initial residual = 0.0515867, Final residual = 0.00251805, No Iterations 1
smoothSolver:  Solving for Uz, Initial residual = 0.0462008, Final residual = 0.00196107, No Iterations 1
DICPCG:  Solving for p, Initial residual = 0.0169875, Final residual = 0.000770388, No Iterations 28
time step continuity errors : sum local = 0.0133841, global = 0.00353099, cumulative = 0.00862701
smoothSolver:  Solving for omega, Initial residual = 0.0283509, Final residual = 0.00154833, No Iterations 1
smoothSolver:  Solving for k, Initial residual = 0.0597505, Final residual = 0.00293257, No Iterations 1
ExecutionTime = 16.0262 s  ClockTime = 17 s

volFieldValue Uavg_propeller write:
    volAverage(propeller) of U = (0.0567267 0.00738714 -8.23114)

surfaceFieldValue phi_farField write:
    orientedSum(farField) of phi = 1.40968

surfaceFieldValue phi_top write:
    orientedSum(top) of phi = -1.24019

Time = 17s

--> FOAM Warning : 
    From function void Foam::Function1s::Table<Type>::checkX(Foam::scalar) const [with Type = Foam::Vector2D<double>; Foam::scalar = double]
    in file lnInclude/Table.C at line 107
    "value (2.74371) overflow"

--> FOAM Warning : 
    From function void Foam::Function1s::Table<Type>::checkX(Foam::scalar) const [with Type = Foam::Vector2D<double>; Foam::scalar = double]
    in file lnInclude/Table.C at line 107
    "value (2.73092) overflow"

smoothSolver:  Solving for Ux, Initial residual = 0.0499147, Final residual = 0.00246885, No Iterations 1
smoothSolver:  Solving for Uy, Initial residual = 0.0497945, Final residual = 0.00244387, No Iterations 1
smoothSolver:  Solving for Uz, Initial residual = 0.0368897, Final residual = 0.00159477, No Iterations 1
DICPCG:  Solving for p, Initial residual = 0.0116714, Final residual = 0.000567023, No Iterations 28
time step continuity errors : sum local = 0.0135917, global = 0.00218503, cumulative = 0.010812
smoothSolver:  Solving for omega, Initial residual = 0.0271219, Final residual = 0.00148621, No Iterations 1
smoothSolver:  Solving for k, Initial residual = 0.0566183, Final residual = 0.00276241, No Iterations 1
ExecutionTime = 16.777 s  ClockTime = 17 s

volFieldValue Uavg_propeller write:
    volAverage(propeller) of U = (0.0618795 0.00567739 -8.12989)

surfaceFieldValue phi_farField write:
    orientedSum(farField) of phi = 1.36943

surfaceFieldValue phi_top write:
    orientedSum(top) of phi = -1.26455

Time = 18s

--> FOAM Warning : 
    From function void Foam::Function1s::Table<Type>::checkX(Foam::scalar) const [with Type = Foam::Vector2D<double>; Foam::scalar = double]
    in file lnInclude/Table.C at line 107
    "value (2.70996) overflow"

--> FOAM Warning : 
    From function void Foam::Function1s::Table<Type>::checkX(Foam::scalar) const [with Type = Foam::Vector2D<double>; Foam::scalar = double]
    in file lnInclude/Table.C at line 107
    "value (2.69701) overflow"

smoothSolver:  Solving for Ux, Initial residual = 0.0545599, Final residual = 0.00268167, No Iterations 1
smoothSolver:  Solving for Uy, Initial residual = 0.0544947, Final residual = 0.00265505, No Iterations 1
smoothSolver:  Solving for Uz, Initial residual = 0.0313177, Final residual = 0.00139787, No Iterations 1
DICPCG:  Solving for p, Initial residual = 0.00919432, Final residual = 0.000395291, No Iterations 27
time step continuity errors : sum local = 0.0113922, global = -2.51196e-05, cumulative = 0.0107869
smoothSolver:  Solving for omega, Initial residual = 0.0261538, Final residual = 0.0014303, No Iterations 1
smoothSolver:  Solving for k, Initial residual = 0.053674, Final residual = 0.00260256, No Iterations 1
ExecutionTime = 17.6233 s  ClockTime = 18 s

volFieldValue Uavg_propeller write:
    volAverage(propeller) of U = (0.0638818 0.0075395 -7.29277)

surfaceFieldValue phi_farField write:
    orientedSum(farField) of phi = 1.31242

surfaceFieldValue phi_top write:
    orientedSum(top) of phi = -1.31363

Time = 19s

--> FOAM Warning : 
    From function void Foam::Function1s::Table<Type>::checkX(Foam::scalar) const [with Type = Foam::Vector2D<double>; Foam::scalar = double]
    in file lnInclude/Table.C at line 107
    "value (2.43092) overflow"

--> FOAM Warning : 
    From function void Foam::Function1s::Table<Type>::checkX(Foam::scalar) const [with Type = Foam::Vector2D<double>; Foam::scalar = double]
    in file lnInclude/Table.C at line 107
    "value (2.41648) overflow"

smoothSolver:  Solving for Ux, Initial residual = 0.0580913, Final residual = 0.00284674, No Iterations 1
smoothSolver:  Solving for Uy, Initial residual = 0.0580481, Final residual = 0.00282578, No Iterations 1
smoothSolver:  Solving for Uz, Initial residual = 0.0302175, Final residual = 0.00136128, No Iterations 1
DICPCG:  Solving for p, Initial residual = 0.00881569, Final residual = 0.000426456, No Iterations 20
time step continuity errors : sum local = 0.0130491, global = 0.00337447, cumulative = 0.0141614
smoothSolver:  Solving for omega, Initial residual = 0.0252051, Final residual = 0.00137806, No Iterations 1
smoothSolver:  Solving for k, Initial residual = 0.050843, Final residual = 0.00244509, No Iterations 1
ExecutionTime = 18.3409 s  ClockTime = 19 s

volFieldValue Uavg_propeller write:
    volAverage(propeller) of U = (0.0612132 0.010652 -5.8811)

surfaceFieldValue phi_farField write:
    orientedSum(farField) of phi = 1.46627

surfaceFieldValue phi_top write:
    orientedSum(top) of phi = -1.30429

Time = 20s

--> FOAM Warning : 
    From function void Foam::Function1s::Table<Type>::checkX(Foam::scalar) const [with Type = Foam::Vector2D<double>; Foam::scalar = double]
    in file lnInclude/Table.C at line 107
    "value (1.96037) overflow"

--> FOAM Warning : 
    From function void Foam::Function1s::Table<Type>::checkX(Foam::scalar) const [with Type = Foam::Vector2D<double>; Foam::scalar = double]
    in file lnInclude/Table.C at line 107
    "value (1.94245) overflow"

smoothSolver:  Solving for Ux, Initial residual = 0.0571138, Final residual = 0.00281746, No Iterations 1
smoothSolver:  Solving for Uy, Initial residual = 0.0570678, Final residual = 0.00280488, No Iterations 1
smoothSolver:  Solving for Uz, Initial residual = 0.0302351, Final residual = 0.00136982, No Iterations 1
DICPCG:  Solving for p, Initial residual = 0.00906272, Final residual = 0.00040117, No Iterations 18
time step continuity errors : sum local = 0.0121391, global = 0.00210465, cumulative = 0.016266
smoothSolver:  Solving for omega, Initial residual = 0.0245943, Final residual = 0.00134679, No Iterations 1
smoothSolver:  Solving for k, Initial residual = 0.0490137, Final residual = 0.00234035, No Iterations 1
ExecutionTime = 19.0315 s  ClockTime = 20 s

volFieldValue Uavg_propeller write:
    volAverage(propeller) of U = (0.0549487 0.0131936 -4.21054)

surfaceFieldValue phi_farField write:
    orientedSum(farField) of phi = 1.39125

surfaceFieldValue phi_top write:
    orientedSum(top) of phi = -1.29023

Time = 21s

--> FOAM Warning : 
    From function void Foam::Function1s::Table<Type>::checkX(Foam::scalar) const [with Type = Foam::Vector2D<double>; Foam::scalar = double]
    in file lnInclude/Table.C at line 107
    "value (1.40351) overflow"

--> FOAM Warning : 
    From function void Foam::Function1s::Table<Type>::checkX(Foam::scalar) const [with Type = Foam::Vector2D<double>; Foam::scalar = double]
    in file lnInclude/Table.C at line 107
    "value (1.3785) overflow"

smoothSolver:  Solving for Ux, Initial residual = 0.0531814, Final residual = 0.00266538, No Iterations 1
smoothSolver:  Solving for Uy, Initial residual = 0.0531463, Final residual = 0.00265677, No Iterations 1
smoothSolver:  Solving for Uz, Initial residual = 0.0311432, Final residual = 0.00141846, No Iterations 1
DICPCG:  Solving for p, Initial residual = 0.0105068, Final residual = 0.00051293, No Iterations 18
time step continuity errors : sum local = 0.0134462, global = -0.00189417, cumulative = 0.0143719
smoothSolver:  Solving for omega, Initial residual = 0.024006, Final residual = 0.00131972, No Iterations 1
smoothSolver:  Solving for k, Initial residual = 0.0476743, Final residual = 0.00226178, No Iterations 1
ExecutionTime = 19.7662 s  ClockTime = 20 s

volFieldValue Uavg_propeller write:
    volAverage(propeller) of U = (0.0480892 0.0143962 -2.68043)

surfaceFieldValue phi_farField write:
    orientedSum(farField) of phi = 1.20626

surfaceFieldValue phi_top write:
    orientedSum(top) of phi = -1.29718

Time = 22s

--> FOAM Warning : 
    From function void Foam::Function1s::Table<Type>::checkX(Foam::scalar) const [with Type = Foam::Vector2D<double>; Foam::scalar = double]
    in file lnInclude/Table.C at line 107
    "value (0.893475) overflow"

--> FOAM Warning : 
    From function void Foam::Function1s::Table<Type>::checkX(Foam::scalar) const [with Type = Foam::Vector2D<double>; Foam::scalar = double]
    in file lnInclude/Table.C at line 107
    "value (0.854175) overflow"

smoothSolver:  Solving for Ux, Initial residual = 0.0487108, Final residual = 0.00249232, No Iterations 1
smoothSolver:  Solving for Uy, Initial residual = 0.0486982, Final residual = 0.00248113, No Iterations 1
smoothSolver:  Solving for Uz, Initial residual = 0.0329422, Final residual = 0.00151025, No Iterations 1
DICPCG:  Solving for p, Initial residual = 0.0117998, Final residual = 0.000573753, No Iterations 20
time step continuity errors : sum local = 0.0127594, global = -0.00396168, cumulative = 0.0104102
smoothSolver:  Solving for omega, Initial residual = 0.0234266, Final residual = 0.00129067, No Iterations 1
smoothSolver:  Solving for k, Initial residual = 0.046387, Final residual = 0.00218688, No Iterations 1
ExecutionTime = 20.5103 s  ClockTime = 21 s

volFieldValue Uavg_propeller write:
    volAverage(propeller) of U = (0.0401601 0.00795179 -1.69979)

surfaceFieldValue phi_farField write:
    orientedSum(farField) of phi = 1.10538

surfaceFieldValue phi_top write:
    orientedSum(top) of phi = -1.29554

Time = 23s

smoothSolver:  Solving for Ux, Initial residual = 0.0452191, Final residual = 0.0023522, No Iterations 1
smoothSolver:  Solving for Uy, Initial residual = 0.0452034, Final residual = 0.00233532, No Iterations 1
smoothSolver:  Solving for Uz, Initial residual = 0.0340709, Final residual = 0.00157025, No Iterations 1
DICPCG:  Solving for p, Initial residual = 0.0128484, Final residual = 0.000624134, No Iterations 18
time step continuity errors : sum local = 0.0119675, global = -0.00401045, cumulative = 0.00639973
smoothSolver:  Solving for omega, Initial residual = 0.0228422, Final residual = 0.00126111, No Iterations 1
smoothSolver:  Solving for k, Initial residual = 0.0452142, Final residual = 0.00210632, No Iterations 1
ExecutionTime = 21.2199 s  ClockTime = 22 s

volFieldValue Uavg_propeller write:
    volAverage(propeller) of U = (0.0538095 0.0258816 -1.68174)

surfaceFieldValue phi_farField write:
    orientedSum(farField) of phi = 1.11967

surfaceFieldValue phi_top write:
    orientedSum(top) of phi = -1.31217

Time = 24s

smoothSolver:  Solving for Ux, Initial residual = 0.0428954, Final residual = 0.00225684, No Iterations 1
smoothSolver:  Solving for Uy, Initial residual = 0.0428646, Final residual = 0.00223513, No Iterations 1
smoothSolver:  Solving for Uz, Initial residual = 0.0336986, Final residual = 0.00156232, No Iterations 1
DICPCG:  Solving for p, Initial residual = 0.0133535, Final residual = 0.000627861, No Iterations 13
time step continuity errors : sum local = 0.0110984, global = -0.00445591, cumulative = 0.00194382
smoothSolver:  Solving for omega, Initial residual = 0.0222539, Final residual = 0.00123151, No Iterations 1
smoothSolver:  Solving for k, Initial residual = 0.043559, Final residual = 0.00202902, No Iterations 1
ExecutionTime = 21.8506 s  ClockTime = 22 s

volFieldValue Uavg_propeller write:
    volAverage(propeller) of U = (0.00120858 0.0368532 -1.8292)

surfaceFieldValue phi_farField write:
    orientedSum(farField) of phi = 1.11327

surfaceFieldValue phi_top write:
    orientedSum(top) of phi = -1.32715

Time = 25s

smoothSolver:  Solving for Ux, Initial residual = 0.0414127, Final residual = 0.0021894, No Iterations 1
smoothSolver:  Solving for Uy, Initial residual = 0.0413499, Final residual = 0.00216976, No Iterations 1
smoothSolver:  Solving for Uz, Initial residual = 0.0321185, Final residual = 0.001496, No Iterations 1
DICPCG:  Solving for p, Initial residual = 0.0129678, Final residual = 0.000622562, No Iterations 12
time step continuity errors : sum local = 0.0111034, global = -0.00156531, cumulative = 0.000378515
smoothSolver:  Solving for omega, Initial residual = 0.0217258, Final residual = 0.00120541, No Iterations 1
smoothSolver:  Solving for k, Initial residual = 0.042271, Final residual = 0.0019752, No Iterations 1
ExecutionTime = 22.4926 s  ClockTime = 23 s

volFieldValue Uavg_propeller write:
    volAverage(propeller) of U = (0.0140897 0.0234649 -2.19016)

surfaceFieldValue phi_farField write:
    orientedSum(farField) of phi = 1.2397

surfaceFieldValue phi_top write:
    orientedSum(top) of phi = -1.31484

Time = 26s

smoothSolver:  Solving for Ux, Initial residual = 0.0399933, Final residual = 0.00212549, No Iterations 1
smoothSolver:  Solving for Uy, Initial residual = 0.0399102, Final residual = 0.00210361, No Iterations 1
smoothSolver:  Solving for Uz, Initial residual = 0.0297324, Final residual = 0.00139532, No Iterations 1
DICPCG:  Solving for p, Initial residual = 0.0118853, Final residual = 0.000583573, No Iterations 18
time step continuity errors : sum local = 0.011188, global = 0.0046951, cumulative = 0.00507362
smoothSolver:  Solving for omega, Initial residual = 0.0212813, Final residual = 0.00118389, No Iterations 1
smoothSolver:  Solving for k, Initial residual = 0.0402398, Final residual = 0.00188335, No Iterations 1
ExecutionTime = 23.1393 s  ClockTime = 24 s

volFieldValue Uavg_propeller write:
    volAverage(propeller) of U = (0.015201 0.00583248 -2.38948)

surfaceFieldValue phi_farField write:
    orientedSum(farField) of phi = 1.53804

surfaceFieldValue phi_top write:
    orientedSum(top) of phi = -1.31268

Time = 27s

smoothSolver:  Solving for Ux, Initial residual = 0.0389138, Final residual = 0.00206455, No Iterations 1
smoothSolver:  Solving for Uy, Initial residual = 0.0388496, Final residual = 0.00204591, No Iterations 1
smoothSolver:  Solving for Uz, Initial residual = 0.0276289, Final residual = 0.00130972, No Iterations 1
DICPCG:  Solving for p, Initial residual = 0.0101079, Final residual = 0.000459168, No Iterations 22
time step continuity errors : sum local = 0.0100694, global = 0.00280536, cumulative = 0.00787898
smoothSolver:  Solving for omega, Initial residual = 0.0209522, Final residual = 0.00116744, No Iterations 1
smoothSolver:  Solving for k, Initial residual = 0.0390406, Final residual = 0.001823, No Iterations 1
ExecutionTime = 23.8635 s  ClockTime = 24 s

volFieldValue Uavg_propeller write:
    volAverage(propeller) of U = (0.0299775 0.00163002 -2.36078)

surfaceFieldValue phi_farField write:
    orientedSum(farField) of phi = 1.46076

surfaceFieldValue phi_top write:
    orientedSum(top) of phi = -1.3261

Time = 28s

smoothSolver:  Solving for Ux, Initial residual = 0.0379625, Final residual = 0.00201464, No Iterations 1
smoothSolver:  Solving for Uy, Initial residual = 0.0379246, Final residual = 0.00199693, No Iterations 1
smoothSolver:  Solving for Uz, Initial residual = 0.026415, Final residual = 0.00126798, No Iterations 1
DICPCG:  Solving for p, Initial residual = 0.00893581, Final residual = 0.000418269, No Iterations 22
time step continuity errors : sum local = 0.0101947, global = 0.00235086, cumulative = 0.0102298
smoothSolver:  Solving for omega, Initial residual = 0.0205799, Final residual = 0.00114846, No Iterations 1
smoothSolver:  Solving for k, Initial residual = 0.0379356, Final residual = 0.00176693, No Iterations 1
ExecutionTime = 24.6209 s  ClockTime = 25 s

volFieldValue Uavg_propeller write:
    volAverage(propeller) of U = (0.0379863 0.00674019 -2.13757)

surfaceFieldValue phi_farField write:
    orientedSum(farField) of phi = 1.44952

surfaceFieldValue phi_top write:
    orientedSum(top) of phi = -1.33668

Time = 29s

smoothSolver:  Solving for Ux, Initial residual = 0.0369242, Final residual = 0.00196848, No Iterations 1
smoothSolver:  Solving for Uy, Initial residual = 0.036917, Final residual = 0.00195596, No Iterations 1
smoothSolver:  Solving for Uz, Initial residual = 0.0263791, Final residual = 0.0012773, No Iterations 1
DICPCG:  Solving for p, Initial residual = 0.00824975, Final residual = 0.000410897, No Iterations 18
time step continuity errors : sum local = 0.0107222, global = 0.00558818, cumulative = 0.015818
smoothSolver:  Solving for omega, Initial residual = 0.0202075, Final residual = 0.00112986, No Iterations 1
smoothSolver:  Solving for k, Initial residual = 0.0368419, Final residual = 0.00171092, No Iterations 1
ExecutionTime = 25.3503 s  ClockTime = 26 s

volFieldValue Uavg_propeller write:
    volAverage(propeller) of U = (0.0574927 0.000967155 -1.87919)

surfaceFieldValue phi_farField write:
    orientedSum(farField) of phi = 1.60265

surfaceFieldValue phi_top write:
    orientedSum(top) of phi = -1.33442

Time = 30s

smoothSolver:  Solving for Ux, Initial residual = 0.0356357, Final residual = 0.00192127, No Iterations 1
smoothSolver:  Solving for Uy, Initial residual = 0.0356481, Final residual = 0.0019134, No Iterations 1
smoothSolver:  Solving for Uz, Initial residual = 0.0271434, Final residual = 0.00132217, No Iterations 1
DICPCG:  Solving for p, Initial residual = 0.00825775, Final residual = 0.000381884, No Iterations 17
time step continuity errors : sum local = 0.00967903, global = 0.00457396, cumulative = 0.020392
smoothSolver:  Solving for omega, Initial residual = 0.0199029, Final residual = 0.00111503, No Iterations 1
smoothSolver:  Solving for k, Initial residual = 0.0362078, Final residual = 0.00167942, No Iterations 1
ExecutionTime = 26.0404 s  ClockTime = 27 s

volFieldValue Uavg_propeller write:
    volAverage(propeller) of U = (0.0793882 0.0181972 -1.51797)

surfaceFieldValue phi_farField write:
    orientedSum(farField) of phi = 1.5791

surfaceFieldValue phi_top write:
    orientedSum(top) of phi = -1.35955

Time = 31s

smoothSolver:  Solving for Ux, Initial residual = 0.0342716, Final residual = 0.00187684, No Iterations 1
smoothSolver:  Solving for Uy, Initial residual = 0.0343063, Final residual = 0.00187268, No Iterations 1
smoothSolver:  Solving for Uz, Initial residual = 0.0282697, Final residual = 0.0013866, No Iterations 1
DICPCG:  Solving for p, Initial residual = 0.009022, Final residual = 0.000419177, No Iterations 16
time step continuity errors : sum local = 0.00945436, global = 0.00293121, cumulative = 0.0233232
smoothSolver:  Solving for omega, Initial residual = 0.0196308, Final residual = 0.00110217, No Iterations 1
smoothSolver:  Solving for k, Initial residual = 0.0357448, Final residual = 0.00165407, No Iterations 1
ExecutionTime = 26.7323 s  ClockTime = 27 s

volFieldValue Uavg_propeller write:
    volAverage(propeller) of U = (0.0804164 0.041419 -1.3039)

surfaceFieldValue phi_farField write:
    orientedSum(farField) of phi = 1.53124

surfaceFieldValue phi_top write:
    orientedSum(top) of phi = -1.39054

Time = 32s

smoothSolver:  Solving for Ux, Initial residual = 0.033128, Final residual = 0.00183977, No Iterations 1
smoothSolver:  Solving for Uy, Initial residual = 0.033174, Final residual = 0.00183915, No Iterations 1
smoothSolver:  Solving for Uz, Initial residual = 0.0293478, Final residual = 0.00145136, No Iterations 1
DICPCG:  Solving for p, Initial residual = 0.00936222, Final residual = 0.000449023, No Iterations 15
time step continuity errors : sum local = 0.0093868, global = 0.00124854, cumulative = 0.0245717
smoothSolver:  Solving for omega, Initial residual = 0.0193885, Final residual = 0.00108964, No Iterations 1
smoothSolver:  Solving for k, Initial residual = 0.0355975, Final residual = 0.00163731, No Iterations 1
ExecutionTime = 27.4546 s  ClockTime = 28 s

volFieldValue Uavg_propeller write:
    volAverage(propeller) of U = (0.0757587 0.0554881 -1.09987)

surfaceFieldValue phi_farField write:
    orientedSum(farField) of phi = 1.47988

surfaceFieldValue phi_top write:
    orientedSum(top) of phi = -1.41995

Time = 33s

smoothSolver:  Solving for Ux, Initial residual = 0.0323033, Final residual = 0.0018109, No Iterations 1
smoothSolver:  Solving for Uy, Initial residual = 0.0323426, Final residual = 0.00181465, No Iterations 1
smoothSolver:  Solving for Uz, Initial residual = 0.030197, Final residual = 0.00151548, No Iterations 1
DICPCG:  Solving for p, Initial residual = 0.00976251, Final residual = 0.000435369, No Iterations 15
time step continuity errors : sum local = 0.00852393, global = -0.000291386, cumulative = 0.0242803
smoothSolver:  Solving for omega, Initial residual = 0.0191589, Final residual = 0.00107855, No Iterations 1
smoothSolver:  Solving for k, Initial residual = 0.0355828, Final residual = 0.0016364, No Iterations 1
ExecutionTime = 28.1595 s  ClockTime = 29 s

volFieldValue Uavg_propeller write:
    volAverage(propeller) of U = (0.0646573 0.053013 -0.993681)

surfaceFieldValue phi_farField write:
    orientedSum(farField) of phi = 1.4292

surfaceFieldValue phi_top write:
    orientedSum(top) of phi = -1.44318

Time = 34s

smoothSolver:  Solving for Ux, Initial residual = 0.0316969, Final residual = 0.00179015, No Iterations 1
smoothSolver:  Solving for Uy, Initial residual = 0.0317387, Final residual = 0.001799, No Iterations 1
smoothSolver:  Solving for Uz, Initial residual = 0.0307841, Final residual = 0.00157463, No Iterations 1
DICPCG:  Solving for p, Initial residual = 0.0101221, Final residual = 0.00049361, No Iterations 14
time step continuity errors : sum local = 0.00912014, global = -0.000629992, cumulative = 0.0236504
smoothSolver:  Solving for omega, Initial residual = 0.0189519, Final residual = 0.00106775, No Iterations 1
smoothSolver:  Solving for k, Initial residual = 0.0358371, Final residual = 0.00163599, No Iterations 1
ExecutionTime = 28.9053 s  ClockTime = 29 s

volFieldValue Uavg_propeller write:
    volAverage(propeller) of U = (0.0579901 0.040649 -1.05752)

surfaceFieldValue phi_farField write:
    orientedSum(farField) of phi = 1.43047

surfaceFieldValue phi_top write:
    orientedSum(top) of phi = -1.46071

Time = 35s

smoothSolver:  Solving for Ux, Initial residual = 0.0312535, Final residual = 0.00177753, No Iterations 1
smoothSolver:  Solving for Uy, Initial residual = 0.0312775, Final residual = 0.00178982, No Iterations 1
smoothSolver:  Solving for Uz, Initial residual = 0.0314889, Final residual = 0.00164466, No Iterations 1
DICPCG:  Solving for p, Initial residual = 0.00989018, Final residual = 0.000440093, No Iterations 15
time step continuity errors : sum local = 0.0081166, global = -0.000939475, cumulative = 0.0227109
smoothSolver:  Solving for omega, Initial residual = 0.0187844, Final residual = 0.00105864, No Iterations 1
smoothSolver:  Solving for k, Initial residual = 0.0359561, Final residual = 0.00164323, No Iterations 1
ExecutionTime = 29.6208 s  ClockTime = 30 s

volFieldValue Uavg_propeller write:
    volAverage(propeller) of U = (0.0509827 0.0202027 -1.2797)

surfaceFieldValue phi_farField write:
    orientedSum(farField) of phi = 1.42841

surfaceFieldValue phi_top write:
    orientedSum(top) of phi = -1.4735

Time = 36s

smoothSolver:  Solving for Ux, Initial residual = 0.0308529, Final residual = 0.00177086, No Iterations 1
smoothSolver:  Solving for Uy, Initial residual = 0.0308855, Final residual = 0.00178812, No Iterations 1
smoothSolver:  Solving for Uz, Initial residual = 0.0324954, Final residual = 0.00173878, No Iterations 1
DICPCG:  Solving for p, Initial residual = 0.00944386, Final residual = 0.000465193, No Iterations 15
time step continuity errors : sum local = 0.00882219, global = -0.000410185, cumulative = 0.0223007
smoothSolver:  Solving for omega, Initial residual = 0.0186382, Final residual = 0.00104996, No Iterations 1
smoothSolver:  Solving for k, Initial residual = 0.0364511, Final residual = 0.00166243, No Iterations 1
ExecutionTime = 30.2962 s  ClockTime = 31 s

volFieldValue Uavg_propeller write:
    volAverage(propeller) of U = (0.0488506 0.00609752 -1.51023)

surfaceFieldValue phi_farField write:
    orientedSum(farField) of phi = 1.46073

surfaceFieldValue phi_top write:
    orientedSum(top) of phi = -1.48042

Time = 37s

smoothSolver:  Solving for Ux, Initial residual = 0.0305386, Final residual = 0.00177289, No Iterations 1
smoothSolver:  Solving for Uy, Initial residual = 0.0305725, Final residual = 0.00179326, No Iterations 1
smoothSolver:  Solving for Uz, Initial residual = 0.0337834, Final residual = 0.00185171, No Iterations 1
DICPCG:  Solving for p, Initial residual = 0.00908992, Final residual = 0.000417836, No Iterations 16
time step continuity errors : sum local = 0.00820349, global = -4.44946e-05, cumulative = 0.0222562
smoothSolver:  Solving for omega, Initial residual = 0.018547, Final residual = 0.00104375, No Iterations 1
smoothSolver:  Solving for k, Initial residual = 0.0370899, Final residual = 0.00167842, No Iterations 1
ExecutionTime = 30.984 s  ClockTime = 31 s

volFieldValue Uavg_propeller write:
    volAverage(propeller) of U = (0.0500146 0.00120284 -1.61551)

surfaceFieldValue phi_farField write:
    orientedSum(farField) of phi = 1.47729

surfaceFieldValue phi_top write:
    orientedSum(top) of phi = -1.47943

Time = 38s

smoothSolver:  Solving for Ux, Initial residual = 0.030423, Final residual = 0.00178361, No Iterations 1
smoothSolver:  Solving for Uy, Initial residual = 0.0304619, Final residual = 0.00180711, No Iterations 1
smoothSolver:  Solving for Uz, Initial residual = 0.0353258, Final residual = 0.00198107, No Iterations 1
DICPCG:  Solving for p, Initial residual = 0.00861033, Final residual = 0.000406113, No Iterations 16
time step continuity errors : sum local = 0.00851747, global = 0.000265227, cumulative = 0.0225214
smoothSolver:  Solving for omega, Initial residual = 0.0185069, Final residual = 0.00103909, No Iterations 1
smoothSolver:  Solving for k, Initial residual = 0.0375704, Final residual = 0.00170445, No Iterations 1
ExecutionTime = 31.6679 s  ClockTime = 32 s

volFieldValue Uavg_propeller write:
    volAverage(propeller) of U = (0.0522919 0.000820519 -1.54699)

surfaceFieldValue phi_farField write:
    orientedSum(farField) of phi = 1.48952

surfaceFieldValue phi_top write:
    orientedSum(top) of phi = -1.47679

Time = 39s

smoothSolver:  Solving for Ux, Initial residual = 0.0305656, Final residual = 0.00180586, No Iterations 1
smoothSolver:  Solving for Uy, Initial residual = 0.0306091, Final residual = 0.00183321, No Iterations 1
smoothSolver:  Solving for Uz, Initial residual = 0.0370143, Final residual = 0.00211855, No Iterations 1
DICPCG:  Solving for p, Initial residual = 0.00894569, Final residual = 0.000432122, No Iterations 16
time step continuity errors : sum local = 0.0088607, global = 9.13655e-05, cumulative = 0.0226128
smoothSolver:  Solving for omega, Initial residual = 0.0185245, Final residual = 0.0010358, No Iterations 1
smoothSolver:  Solving for k, Initial residual = 0.0383061, Final residual = 0.00173039, No Iterations 1
ExecutionTime = 32.4193 s  ClockTime = 33 s

volFieldValue Uavg_propeller write:
    volAverage(propeller) of U = (0.0531822 0.00335852 -1.44635)

surfaceFieldValue phi_farField write:
    orientedSum(farField) of phi = 1.47751

surfaceFieldValue phi_top write:
    orientedSum(top) of phi = -1.47313

Time = 40s

smoothSolver:  Solving for Ux, Initial residual = 0.0309047, Final residual = 0.00183595, No Iterations 1
smoothSolver:  Solving for Uy, Initial residual = 0.0309712, Final residual = 0.00186527, No Iterations 1
smoothSolver:  Solving for Uz, Initial residual = 0.0387705, Final residual = 0.002252, No Iterations 1
DICPCG:  Solving for p, Initial residual = 0.00927754, Final residual = 0.000422598, No Iterations 17
time step continuity errors : sum local = 0.00846111, global = -0.0010536, cumulative = 0.0215592
smoothSolver:  Solving for omega, Initial residual = 0.0185988, Final residual = 0.0010333, No Iterations 1
smoothSolver:  Solving for k, Initial residual = 0.039203, Final residual = 0.00176526, No Iterations 1
ExecutionTime = 33.1306 s  ClockTime = 34 s

volFieldValue Uavg_propeller write:
    volAverage(propeller) of U = (0.0531706 0.0087518 -1.35848)

surfaceFieldValue phi_farField write:
    orientedSum(farField) of phi = 1.41716

surfaceFieldValue phi_top write:
    orientedSum(top) of phi = -1.46773

Time = 41s

smoothSolver:  Solving for Ux, Initial residual = 0.0314176, Final residual = 0.00187107, No Iterations 1
smoothSolver:  Solving for Uy, Initial residual = 0.0314887, Final residual = 0.00190235, No Iterations 1
smoothSolver:  Solving for Uz, Initial residual = 0.0403858, Final residual = 0.00237372, No Iterations 1
DICPCG:  Solving for p, Initial residual = 0.00967723, Final residual = 0.000450953, No Iterations 18
time step continuity errors : sum local = 0.00868774, global = -0.00261767, cumulative = 0.0189415
smoothSolver:  Solving for omega, Initial residual = 0.0187236, Final residual = 0.00103174, No Iterations 1
smoothSolver:  Solving for k, Initial residual = 0.0396819, Final residual = 0.00179073, No Iterations 1
ExecutionTime = 33.8804 s  ClockTime = 34 s

volFieldValue Uavg_propeller write:
    volAverage(propeller) of U = (0.0519154 0.0155954 -1.26377)

surfaceFieldValue phi_farField write:
    orientedSum(farField) of phi = 1.33836

surfaceFieldValue phi_top write:
    orientedSum(top) of phi = -1.46401

Time = 42s

smoothSolver:  Solving for Ux, Initial residual = 0.0320666, Final residual = 0.00191074, No Iterations 1
smoothSolver:  Solving for Uy, Initial residual = 0.0321408, Final residual = 0.00194307, No Iterations 1
smoothSolver:  Solving for Uz, Initial residual = 0.0417673, Final residual = 0.0024793, No Iterations 1
DICPCG:  Solving for p, Initial residual = 0.0110145, Final residual = 0.000528488, No Iterations 20
time step continuity errors : sum local = 0.00894641, global = -0.00412548, cumulative = 0.014816
smoothSolver:  Solving for omega, Initial residual = 0.0188979, Final residual = 0.00103124, No Iterations 1
smoothSolver:  Solving for k, Initial residual = 0.0405555, Final residual = 0.00182536, No Iterations 1
ExecutionTime = 34.6089 s  ClockTime = 35 s

volFieldValue Uavg_propeller write:
    volAverage(propeller) of U = (0.0500515 0.023011 -1.19841)

surfaceFieldValue phi_farField write:
    orientedSum(farField) of phi = 1.25965

surfaceFieldValue phi_top write:
    orientedSum(top) of phi = -1.45767

Time = 43s

smoothSolver:  Solving for Ux, Initial residual = 0.0327781, Final residual = 0.00195016, No Iterations 1
smoothSolver:  Solving for Uy, Initial residual = 0.0328479, Final residual = 0.00198322, No Iterations 1
smoothSolver:  Solving for Uz, Initial residual = 0.0430052, Final residual = 0.00257267, No Iterations 1
DICPCG:  Solving for p, Initial residual = 0.0127283, Final residual = 0.000616182, No Iterations 22
time step continuity errors : sum local = 0.00911764, global = -0.00366106, cumulative = 0.011155
smoothSolver:  Solving for omega, Initial residual = 0.0191133, Final residual = 0.00103189, No Iterations 1
smoothSolver:  Solving for k, Initial residual = 0.0415275, Final residual = 0.00186383, No Iterations 1
ExecutionTime = 35.3258 s  ClockTime = 36 s

volFieldValue Uavg_propeller write:
    volAverage(propeller) of U = (0.0485909 0.0295934 -1.17924)

surfaceFieldValue phi_farField write:
    orientedSum(farField) of phi = 1.25624

surfaceFieldValue phi_top write:
    orientedSum(top) of phi = -1.43197

Time = 44s

smoothSolver:  Solving for Ux, Initial residual = 0.0334843, Final residual = 0.00198685, No Iterations 1
smoothSolver:  Solving for Uy, Initial residual = 0.0335533, Final residual = 0.0020209, No Iterations 1
smoothSolver:  Solving for Uz, Initial residual = 0.0441726, Final residual = 0.00265817, No Iterations 1
DICPCG:  Solving for p, Initial residual = 0.0145057, Final residual = 0.000718776, No Iterations 22
time step continuity errors : sum local = 0.00955543, global = -0.00302546, cumulative = 0.00812951
smoothSolver:  Solving for omega, Initial residual = 0.0193773, Final residual = 0.00103431, No Iterations 1
smoothSolver:  Solving for k, Initial residual = 0.0420628, Final residual = 0.00189184, No Iterations 1
ExecutionTime = 36.024 s  ClockTime = 37 s

volFieldValue Uavg_propeller write:
    volAverage(propeller) of U = (0.0485384 0.0342555 -1.20266)

surfaceFieldValue phi_farField write:
    orientedSum(farField) of phi = 1.24624

surfaceFieldValue phi_top write:
    orientedSum(top) of phi = -1.39146

Time = 45s

smoothSolver:  Solving for Ux, Initial residual = 0.0341173, Final residual = 0.00201811, No Iterations 1
smoothSolver:  Solving for Uy, Initial residual = 0.0341833, Final residual = 0.00205243, No Iterations 1
smoothSolver:  Solving for Uz, Initial residual = 0.0452937, Final residual = 0.00273735, No Iterations 1
DICPCG:  Solving for p, Initial residual = 0.0163392, Final residual = 0.000805778, No Iterations 16
time step continuity errors : sum local = 0.00969837, global = -0.00466982, cumulative = 0.0034597
smoothSolver:  Solving for omega, Initial residual = 0.0196638, Final residual = 0.00103771, No Iterations 1
smoothSolver:  Solving for k, Initial residual = 0.0433622, Final residual = 0.00193706, No Iterations 1
ExecutionTime = 36.7604 s  ClockTime = 37 s

volFieldValue Uavg_propeller write:
    volAverage(propeller) of U = (0.0491411 0.0357824 -1.25068)

surfaceFieldValue phi_farField write:
    orientedSum(farField) of phi = 1.14509

surfaceFieldValue phi_top write:
    orientedSum(top) of phi = -1.36924

Time = 46s

smoothSolver:  Solving for Ux, Initial residual = 0.0346408, Final residual = 0.00204276, No Iterations 1
smoothSolver:  Solving for Uy, Initial residual = 0.034697, Final residual = 0.00207718, No Iterations 1
smoothSolver:  Solving for Uz, Initial residual = 0.0462166, Final residual = 0.00280119, No Iterations 1
DICPCG:  Solving for p, Initial residual = 0.0175348, Final residual = 0.000856628, No Iterations 17
time step continuity errors : sum local = 0.00975514, global = -0.00506107, cumulative = -0.00160138
smoothSolver:  Solving for omega, Initial residual = 0.0199987, Final residual = 0.00104359, No Iterations 1
smoothSolver:  Solving for k, Initial residual = 0.0445488, Final residual = 0.00198702, No Iterations 1
ExecutionTime = 37.4613 s  ClockTime = 38 s

volFieldValue Uavg_propeller write:
    volAverage(propeller) of U = (0.0487592 0.0351183 -1.29986)

surfaceFieldValue phi_farField write:
    orientedSum(farField) of phi = 1.07107

surfaceFieldValue phi_top write:
    orientedSum(top) of phi = -1.314

Time = 47s

smoothSolver:  Solving for Ux, Initial residual = 0.0351234, Final residual = 0.00206381, No Iterations 1
smoothSolver:  Solving for Uy, Initial residual = 0.0351709, Final residual = 0.00209726, No Iterations 1
smoothSolver:  Solving for Uz, Initial residual = 0.0472183, Final residual = 0.002866, No Iterations 1
DICPCG:  Solving for p, Initial residual = 0.0189504, Final residual = 0.000846175, No Iterations 24
time step continuity errors : sum local = 0.00902943, global = -0.00118849, cumulative = -0.00278987
smoothSolver:  Solving for omega, Initial residual = 0.0203797, Final residual = 0.00105251, No Iterations 1
smoothSolver:  Solving for k, Initial residual = 0.0454501, Final residual = 0.00202243, No Iterations 1
ExecutionTime = 38.2211 s  ClockTime = 39 s

volFieldValue Uavg_propeller write:
    volAverage(propeller) of U = (0.0476973 0.0318282 -1.33237)

surfaceFieldValue phi_farField write:
    orientedSum(farField) of phi = 1.13889

surfaceFieldValue phi_top write:
    orientedSum(top) of phi = -1.19594

Time = 48s

smoothSolver:  Solving for Ux, Initial residual = 0.0356334, Final residual = 0.00208448, No Iterations 1
smoothSolver:  Solving for Uy, Initial residual = 0.0356747, Final residual = 0.002117, No Iterations 1
smoothSolver:  Solving for Uz, Initial residual = 0.0485383, Final residual = 0.00293597, No Iterations 1
DICPCG:  Solving for p, Initial residual = 0.0208228, Final residual = 0.000995157, No Iterations 17
time step continuity errors : sum local = 0.00979885, global = -0.00505403, cumulative = -0.00784389
smoothSolver:  Solving for omega, Initial residual = 0.0207796, Final residual = 0.0010638, No Iterations 1
smoothSolver:  Solving for k, Initial residual = 0.0470922, Final residual = 0.00208684, No Iterations 1
ExecutionTime = 38.8938 s  ClockTime = 39 s

volFieldValue Uavg_propeller write:
    volAverage(propeller) of U = (0.0456921 0.0272857 -1.34206)

surfaceFieldValue phi_farField write:
    orientedSum(farField) of phi = 0.905518

surfaceFieldValue phi_top write:
    orientedSum(top) of phi = -1.14811

Time = 49s

smoothSolver:  Solving for Ux, Initial residual = 0.0360488, Final residual = 0.00210106, No Iterations 1
smoothSolver:  Solving for Uy, Initial residual = 0.0360979, Final residual = 0.00213252, No Iterations 1
smoothSolver:  Solving for Uz, Initial residual = 0.0495627, Final residual = 0.00298654, No Iterations 1
DICPCG:  Solving for p, Initial residual = 0.0232099, Final residual = 0.00114574, No Iterations 17
time step continuity errors : sum local = 0.0103936, global = -0.00521744, cumulative = -0.0130613
smoothSolver:  Solving for omega, Initial residual = 0.0212126, Final residual = 0.00107877, No Iterations 1
smoothSolver:  Solving for k, Initial residual = 0.0482784, Final residual = 0.00214105, No Iterations 1
ExecutionTime = 39.556 s  ClockTime = 40 s

volFieldValue Uavg_propeller write:
    volAverage(propeller) of U = (0.0425113 0.0223215 -1.33448)

surfaceFieldValue phi_farField write:
    orientedSum(farField) of phi = 0.791913

surfaceFieldValue phi_top write:
    orientedSum(top) of phi = -1.04235

Time = 50s

smoothSolver:  Solving for Ux, Initial residual = 0.0364757, Final residual = 0.0021188, No Iterations 1
smoothSolver:  Solving for Uy, Initial residual = 0.0365149, Final residual = 0.00214844, No Iterations 1
smoothSolver:  Solving for Uz, Initial residual = 0.0506075, Final residual = 0.00303926, No Iterations 1
DICPCG:  Solving for p, Initial residual = 0.0294642, Final residual = 0.00144026, No Iterations 18
time step continuity errors : sum local = 0.0106039, global = -0.0053206, cumulative = -0.0183819
smoothSolver:  Solving for omega, Initial residual = 0.0216888, Final residual = 0.00109598, No Iterations 1
smoothSolver:  Solving for k, Initial residual = 0.0496528, Final residual = 0.00219938, No Iterations 1
ExecutionTime = 41.3474 s  ClockTime = 42 s

volFieldValue Uavg_propeller write:
    volAverage(propeller) of U = (0.0386742 0.0179028 -1.32151)

surfaceFieldValue phi_farField write:
    orientedSum(farField) of phi = 0.666234

surfaceFieldValue phi_top write:
    orientedSum(top) of phi = -0.921623

Time = 51s

smoothSolver:  Solving for Ux, Initial residual = 0.0368801, Final residual = 0.00213694, No Iterations 1
smoothSolver:  Solving for Uy, Initial residual = 0.0369237, Final residual = 0.00216593, No Iterations 1
smoothSolver:  Solving for Uz, Initial residual = 0.0516527, Final residual = 0.00309807, No Iterations 1
DICPCG:  Solving for p, Initial residual = 0.0384664, Final residual = 0.00181637, No Iterations 19
time step continuity errors : sum local = 0.010455, global = -0.00513823, cumulative = -0.0235202
smoothSolver:  Solving for omega, Initial residual = 0.0221851, Final residual = 0.00111676, No Iterations 1
smoothSolver:  Solving for k, Initial residual = 0.0515553, Final residual = 0.00228, No Iterations 1
ExecutionTime = 42.0836 s  ClockTime = 43 s

volFieldValue Uavg_propeller write:
    volAverage(propeller) of U = (0.0339969 0.0147359 -1.31382)

surfaceFieldValue phi_farField write:
    orientedSum(farField) of phi = 0.533632

surfaceFieldValue phi_top write:
    orientedSum(top) of phi = -0.780267

Time = 52s

smoothSolver:  Solving for Ux, Initial residual = 0.0372256, Final residual = 0.00215428, No Iterations 1
smoothSolver:  Solving for Uy, Initial residual = 0.0372636, Final residual = 0.00218164, No Iterations 1
smoothSolver:  Solving for Uz, Initial residual = 0.0527339, Final residual = 0.00316057, No Iterations 1
DICPCG:  Solving for p, Initial residual = 0.0548116, Final residual = 0.0025763, No Iterations 19
time step continuity errors : sum local = 0.0107351, global = -0.00521579, cumulative = -0.028736
smoothSolver:  Solving for omega, Initial residual = 0.0227571, Final residual = 0.00114253, No Iterations 1
smoothSolver:  Solving for k, Initial residual = 0.0531724, Final residual = 0.00235104, No Iterations 1
ExecutionTime = 42.8455 s  ClockTime = 43 s

volFieldValue Uavg_propeller write:
    volAverage(propeller) of U = (0.0289307 0.0130167 -1.31562)

surfaceFieldValue phi_farField write:
    orientedSum(farField) of phi = 0.363903

surfaceFieldValue phi_top write:
    orientedSum(top) of phi = -0.614261

Time = 53s

smoothSolver:  Solving for Ux, Initial residual = 0.0375127, Final residual = 0.00217068, No Iterations 1
smoothSolver:  Solving for Uy, Initial residual = 0.0375326, Final residual = 0.0021967, No Iterations 1
smoothSolver:  Solving for Uz, Initial residual = 0.0539164, Final residual = 0.00322917, No Iterations 1
DICPCG:  Solving for p, Initial residual = 0.083824, Final residual = 0.00380617, No Iterations 19
time step continuity errors : sum local = 0.0109621, global = -0.00482354, cumulative = -0.0335595
smoothSolver:  Solving for omega, Initial residual = 0.0233879, Final residual = 0.00117277, No Iterations 1
smoothSolver:  Solving for k, Initial residual = 0.0551193, Final residual = 0.00243823, No Iterations 1
ExecutionTime = 43.5764 s  ClockTime = 44 s

volFieldValue Uavg_propeller write:
    volAverage(propeller) of U = (0.0238269 0.0130707 -1.3236)

surfaceFieldValue phi_farField write:
    orientedSum(farField) of phi = 0.180678

surfaceFieldValue phi_top write:
    orientedSum(top) of phi = -0.412208

Time = 54s

smoothSolver:  Solving for Ux, Initial residual = 0.0377017, Final residual = 0.002185, No Iterations 1
smoothSolver:  Solving for Uy, Initial residual = 0.0377165, Final residual = 0.00221009, No Iterations 1
smoothSolver:  Solving for Uz, Initial residual = 0.0551947, Final residual = 0.00330201, No Iterations 1
DICPCG:  Solving for p, Initial residual = 0.139032, Final residual = 0.00659746, No Iterations 18
time step continuity errors : sum local = 0.0115797, global = -0.00457888, cumulative = -0.0381384
smoothSolver:  Solving for omega, Initial residual = 0.0240373, Final residual = 0.00120453, No Iterations 1
smoothSolver:  Solving for k, Initial residual = 0.0571304, Final residual = 0.00252482, No Iterations 1
ExecutionTime = 44.2845 s  ClockTime = 45 s

volFieldValue Uavg_propeller write:
    volAverage(propeller) of U = (0.0191948 0.0150589 -1.3299)

surfaceFieldValue phi_farField write:
    orientedSum(farField) of phi = -0.038363

surfaceFieldValue phi_top write:
    orientedSum(top) of phi = -0.181423

Time = 55s

smoothSolver:  Solving for Ux, Initial residual = 0.0378224, Final residual = 0.00219762, No Iterations 1
smoothSolver:  Solving for Uy, Initial residual = 0.0378363, Final residual = 0.00222081, No Iterations 1
smoothSolver:  Solving for Uz, Initial residual = 0.0565342, Final residual = 0.00338399, No Iterations 1
DICPCG:  Solving for p, Initial residual = 0.284024, Final residual = 0.0127711, No Iterations 17
time step continuity errors : sum local = 0.0109508, global = -0.0041228, cumulative = -0.0422612
smoothSolver:  Solving for omega, Initial residual = 0.0246872, Final residual = 0.00123534, No Iterations 1
smoothSolver:  Solving for k, Initial residual = 0.0586758, Final residual = 0.00259231, No Iterations 1
ExecutionTime = 44.9439 s  ClockTime = 46 s

volFieldValue Uavg_propeller write:
    volAverage(propeller) of U = (0.0157474 0.0183549 -1.32895)

surfaceFieldValue phi_farField write:
    orientedSum(farField) of phi = -0.279004

surfaceFieldValue phi_top write:
    orientedSum(top) of phi = 0.0811102

Time = 56s

smoothSolver:  Solving for Ux, Initial residual = 0.0379347, Final residual = 0.00220966, No Iterations 1
smoothSolver:  Solving for Uy, Initial residual = 0.0379569, Final residual = 0.0022312, No Iterations 1
smoothSolver:  Solving for Uz, Initial residual = 0.0578798, Final residual = 0.00346599, No Iterations 1
DICPCG:  Solving for p, Initial residual = 0.369646, Final residual = 0.0163191, No Iterations 16
time step continuity errors : sum local = 0.0108743, global = -0.00370197, cumulative = -0.0459631
smoothSolver:  Solving for omega, Initial residual = 0.0253014, Final residual = 0.00126415, No Iterations 1
smoothSolver:  Solving for k, Initial residual = 0.0604831, Final residual = 0.00266092, No Iterations 1
ExecutionTime = 45.6192 s  ClockTime = 46 s

volFieldValue Uavg_propeller write:
    volAverage(propeller) of U = (0.013709 0.0220129 -1.32034)

surfaceFieldValue phi_farField write:
    orientedSum(farField) of phi = -0.542505

surfaceFieldValue phi_top write:
    orientedSum(top) of phi = 0.36481

Time = 57s

smoothSolver:  Solving for Ux, Initial residual = 0.0380405, Final residual = 0.00222158, No Iterations 1
smoothSolver:  Solving for Uy, Initial residual = 0.0380705, Final residual = 0.00224133, No Iterations 1
smoothSolver:  Solving for Uz, Initial residual = 0.0590363, Final residual = 0.00353861, No Iterations 1
DICPCG:  Solving for p, Initial residual = 0.192283, Final residual = 0.00960839, No Iterations 16
time step continuity errors : sum local = 0.0125809, global = -0.0036964, cumulative = -0.0496595
smoothSolver:  Solving for omega, Initial residual = 0.0258394, Final residual = 0.00128945, No Iterations 1
smoothSolver:  Solving for k, Initial residual = 0.0618901, Final residual = 0.00270876, No Iterations 1
ExecutionTime = 46.3215 s  ClockTime = 47 s

volFieldValue Uavg_propeller write:
    volAverage(propeller) of U = (0.0126698 0.0253384 -1.30779)

surfaceFieldValue phi_farField write:
    orientedSum(farField) of phi = -0.81204

surfaceFieldValue phi_top write:
    orientedSum(top) of phi = 0.634613

Time = 58s

smoothSolver:  Solving for Ux, Initial residual = 0.0381635, Final residual = 0.0022349, No Iterations 1
smoothSolver:  Solving for Uy, Initial residual = 0.0381882, Final residual = 0.0022514, No Iterations 1
smoothSolver:  Solving for Uz, Initial residual = 0.0599787, Final residual = 0.0035949, No Iterations 1
DICPCG:  Solving for p, Initial residual = 0.134484, Final residual = 0.00631126, No Iterations 18
time step continuity errors : sum local = 0.0122725, global = -0.00527147, cumulative = -0.054931
smoothSolver:  Solving for omega, Initial residual = 0.0263321, Final residual = 0.00131195, No Iterations 1
smoothSolver:  Solving for k, Initial residual = 0.062565, Final residual = 0.00273842, No Iterations 1
ExecutionTime = 47.0448 s  ClockTime = 48 s

volFieldValue Uavg_propeller write:
    volAverage(propeller) of U = (0.0120855 0.0278308 -1.29754)

surfaceFieldValue phi_farField write:
    orientedSum(farField) of phi = -1.06984

surfaceFieldValue phi_top write:
    orientedSum(top) of phi = 0.816805

Time = 59s

smoothSolver:  Solving for Ux, Initial residual = 0.0383146, Final residual = 0.00225032, No Iterations 1
smoothSolver:  Solving for Uy, Initial residual = 0.0383246, Final residual = 0.00226302, No Iterations 1
smoothSolver:  Solving for Uz, Initial residual = 0.060758, Final residual = 0.00363407, No Iterations 1
DICPCG:  Solving for p, Initial residual = 0.100452, Final residual = 0.00441279, No Iterations 26
time step continuity errors : sum local = 0.0117822, global = -0.00060233, cumulative = -0.0555333
smoothSolver:  Solving for omega, Initial residual = 0.0267674, Final residual = 0.00132973, No Iterations 1
smoothSolver:  Solving for k, Initial residual = 0.0634813, Final residual = 0.00275515, No Iterations 1
ExecutionTime = 47.8506 s  ClockTime = 48 s

volFieldValue Uavg_propeller write:
    volAverage(propeller) of U = (0.0113602 0.0292974 -1.29282)

surfaceFieldValue phi_farField write:
    orientedSum(farField) of phi = -1.13589

surfaceFieldValue phi_top write:
    orientedSum(top) of phi = 1.10698

Time = 60s

smoothSolver:  Solving for Ux, Initial residual = 0.0386108, Final residual = 0.00227163, No Iterations 1
smoothSolver:  Solving for Uy, Initial residual = 0.0386092, Final residual = 0.00228126, No Iterations 1
smoothSolver:  Solving for Uz, Initial residual = 0.0615623, Final residual = 0.00366528, No Iterations 1
DICPCG:  Solving for p, Initial residual = 0.079536, Final residual = 0.00395036, No Iterations 25
time step continuity errors : sum local = 0.0132698, global = -0.000878406, cumulative = -0.0564117
smoothSolver:  Solving for omega, Initial residual = 0.0272704, Final residual = 0.00135131, No Iterations 1
smoothSolver:  Solving for k, Initial residual = 0.0638416, Final residual = 0.00276613, No Iterations 1
ExecutionTime = 48.6922 s  ClockTime = 49 s

volFieldValue Uavg_propeller write:
    volAverage(propeller) of U = (0.00998722 0.0298543 -1.29557)

surfaceFieldValue phi_farField write:
    orientedSum(farField) of phi = -1.37712

surfaceFieldValue phi_top write:
    orientedSum(top) of phi = 1.33496

Time = 61s

smoothSolver:  Solving for Ux, Initial residual = 0.0388922, Final residual = 0.00229163, No Iterations 1
smoothSolver:  Solving for Uy, Initial residual = 0.0388836, Final residual = 0.00229884, No Iterations 1
smoothSolver:  Solving for Uz, Initial residual = 0.0622885, Final residual = 0.00368833, No Iterations 1
DICPCG:  Solving for p, Initial residual = 0.0771251, Final residual = 0.00359417, No Iterations 24
time step continuity errors : sum local = 0.0115404, global = -0.00133026, cumulative = -0.057742
smoothSolver:  Solving for omega, Initial residual = 0.0278101, Final residual = 0.0013761, No Iterations 1
smoothSolver:  Solving for k, Initial residual = 0.0640741, Final residual = 0.00277594, No Iterations 1
ExecutionTime = 49.4637 s  ClockTime = 50 s

volFieldValue Uavg_propeller write:
    volAverage(propeller) of U = (0.00820422 0.0297602 -1.30502)

surfaceFieldValue phi_farField write:
    orientedSum(farField) of phi = -1.61753

surfaceFieldValue phi_top write:
    orientedSum(top) of phi = 1.55368

Time = 62s

smoothSolver:  Solving for Ux, Initial residual = 0.0391006, Final residual = 0.00230768, No Iterations 1
smoothSolver:  Solving for Uy, Initial residual = 0.0390797, Final residual = 0.00231263, No Iterations 1
smoothSolver:  Solving for Uz, Initial residual = 0.0627238, Final residual = 0.00369269, No Iterations 1
DICPCG:  Solving for p, Initial residual = 0.0706465, Final residual = 0.00349583, No Iterations 17
time step continuity errors : sum local = 0.0115991, global = -0.00415029, cumulative = -0.0618923
smoothSolver:  Solving for omega, Initial residual = 0.0284289, Final residual = 0.00140742, No Iterations 1
smoothSolver:  Solving for k, Initial residual = 0.0643212, Final residual = 0.00279414, No Iterations 1
ExecutionTime = 50.116 s  ClockTime = 51 s

volFieldValue Uavg_propeller write:
    volAverage(propeller) of U = (0.006452 0.0296413 -1.31773)

surfaceFieldValue phi_farField write:
    orientedSum(farField) of phi = -1.95575

surfaceFieldValue phi_top write:
    orientedSum(top) of phi = 1.75653

Time = 63s

smoothSolver:  Solving for Ux, Initial residual = 0.0391752, Final residual = 0.00231609, No Iterations 1
smoothSolver:  Solving for Uy, Initial residual = 0.0391363, Final residual = 0.00231886, No Iterations 1
smoothSolver:  Solving for Uz, Initial residual = 0.0626713, Final residual = 0.00367491, No Iterations 1
DICPCG:  Solving for p, Initial residual = 0.0672501, Final residual = 0.00317377, No Iterations 16
time step continuity errors : sum local = 0.0106615, global = -0.00355613, cumulative = -0.0654484
smoothSolver:  Solving for omega, Initial residual = 0.0291485, Final residual = 0.00144707, No Iterations 1
smoothSolver:  Solving for k, Initial residual = 0.0644768, Final residual = 0.00283096, No Iterations 1
ExecutionTime = 50.8161 s  ClockTime = 51 s

volFieldValue Uavg_propeller write:
    volAverage(propeller) of U = (0.00527696 0.0297598 -1.32953)

surfaceFieldValue phi_farField write:
    orientedSum(farField) of phi = -2.14142

surfaceFieldValue phi_top write:
    orientedSum(top) of phi = 1.97073

Time = 64s

smoothSolver:  Solving for Ux, Initial residual = 0.039216, Final residual = 0.00232303, No Iterations 1
smoothSolver:  Solving for Uy, Initial residual = 0.0391593, Final residual = 0.00232364, No Iterations 1
smoothSolver:  Solving for Uz, Initial residual = 0.0622814, Final residual = 0.00365425, No Iterations 1
DICPCG:  Solving for p, Initial residual = 0.0636554, Final residual = 0.00310703, No Iterations 15
time step continuity errors : sum local = 0.0106768, global = -0.00283084, cumulative = -0.0682793
smoothSolver:  Solving for omega, Initial residual = 0.0298381, Final residual = 0.00148929, No Iterations 1
smoothSolver:  Solving for k, Initial residual = 0.0647264, Final residual = 0.0028773, No Iterations 1
ExecutionTime = 51.5775 s  ClockTime = 52 s

volFieldValue Uavg_propeller write:
    volAverage(propeller) of U = (0.00490761 0.0302054 -1.33739)

surfaceFieldValue phi_farField write:
    orientedSum(farField) of phi = -2.31615

surfaceFieldValue phi_top write:
    orientedSum(top) of phi = 2.18027

Time = 65s

smoothSolver:  Solving for Ux, Initial residual = 0.0392203, Final residual = 0.00232792, No Iterations 1
smoothSolver:  Solving for Uy, Initial residual = 0.039158, Final residual = 0.00232619, No Iterations 1
smoothSolver:  Solving for Uz, Initial residual = 0.0618143, Final residual = 0.00363049, No Iterations 1
DICPCG:  Solving for p, Initial residual = 0.0609846, Final residual = 0.00277589, No Iterations 15
time step continuity errors : sum local = 0.00966926, global = -0.00146219, cumulative = -0.0697414
smoothSolver:  Solving for omega, Initial residual = 0.0305696, Final residual = 0.00153563, No Iterations 1
smoothSolver:  Solving for k, Initial residual = 0.0650745, Final residual = 0.00293946, No Iterations 1
ExecutionTime = 52.2589 s  ClockTime = 53 s

volFieldValue Uavg_propeller write:
    volAverage(propeller) of U = (0.00525981 0.0308225 -1.33995)

surfaceFieldValue phi_farField write:
    orientedSum(farField) of phi = -2.46163

surfaceFieldValue phi_top write:
[...]
smoothSolver:  Solving for Uy, Initial residual = 0.00268575, Final residual = 0.000261825, No Iterations 1
smoothSolver:  Solving for Uz, Initial residual = 0.00260775, Final residual = 0.000252486, No Iterations 1
DICPCG:  Solving for p, Initial residual = 0.0493309, Final residual = 0.00241295, No Iterations 11
time step continuity errors : sum local = 9.50501e-05, global = 2.8387e-06, cumulative = -0.0288708
smoothSolver:  Solving for omega, Initial residual = 0.00135989, Final residual = 0.00010505, No Iterations 1
smoothSolver:  Solving for k, Initial residual = 0.00148462, Final residual = 0.000140258, No Iterations 1
ExecutionTime = 713.08 s  ClockTime = 714 s

volFieldValue Uavg_propeller write:
    volAverage(propeller) of U = (0.0855363 0.0237537 -1.54294)

surfaceFieldValue phi_farField write:
    orientedSum(farField) of phi = -0.169948

surfaceFieldValue phi_top write:
    orientedSum(top) of phi = 0.170084

Time = 983s

smoothSolver:  Solving for Ux, Initial residual = 0.00237943, Final residual = 0.000229131, No Iterations 1
smoothSolver:  Solving for Uy, Initial residual = 0.00267379, Final residual = 0.000260628, No Iterations 1
smoothSolver:  Solving for Uz, Initial residual = 0.00259868, Final residual = 0.000251632, No Iterations 1
DICPCG:  Solving for p, Initial residual = 0.0486293, Final residual = 0.00242051, No Iterations 11
time step continuity errors : sum local = 9.54934e-05, global = 2.27317e-06, cumulative = -0.0288685
smoothSolver:  Solving for omega, Initial residual = 0.00135981, Final residual = 0.0001048, No Iterations 1
smoothSolver:  Solving for k, Initial residual = 0.00148293, Final residual = 0.000140124, No Iterations 1
ExecutionTime = 713.795 s  ClockTime = 715 s

volFieldValue Uavg_propeller write:
    volAverage(propeller) of U = (0.0862132 0.023761 -1.5429)

surfaceFieldValue phi_farField write:
    orientedSum(farField) of phi = -0.172125

surfaceFieldValue phi_top write:
    orientedSum(top) of phi = 0.172234

Time = 984s

smoothSolver:  Solving for Ux, Initial residual = 0.00237658, Final residual = 0.000228885, No Iterations 1
smoothSolver:  Solving for Uy, Initial residual = 0.00266174, Final residual = 0.00025945, No Iterations 1
smoothSolver:  Solving for Uz, Initial residual = 0.00259001, Final residual = 0.00025079, No Iterations 1
DICPCG:  Solving for p, Initial residual = 0.0483542, Final residual = 0.0021333, No Iterations 12
time step continuity errors : sum local = 8.43566e-05, global = 2.268e-06, cumulative = -0.0288662
smoothSolver:  Solving for omega, Initial residual = 0.00135623, Final residual = 0.000104554, No Iterations 1
smoothSolver:  Solving for k, Initial residual = 0.00148125, Final residual = 0.000140009, No Iterations 1
ExecutionTime = 714.466 s  ClockTime = 715 s

volFieldValue Uavg_propeller write:
    volAverage(propeller) of U = (0.0868902 0.0237684 -1.54287)

surfaceFieldValue phi_farField write:
    orientedSum(farField) of phi = -0.174407

surfaceFieldValue phi_top write:
    orientedSum(top) of phi = 0.174516

Time = 985s

smoothSolver:  Solving for Ux, Initial residual = 0.00237419, Final residual = 0.000228689, No Iterations 1
smoothSolver:  Solving for Uy, Initial residual = 0.0026491, Final residual = 0.000258254, No Iterations 1
smoothSolver:  Solving for Uz, Initial residual = 0.00258193, Final residual = 0.000250017, No Iterations 1
DICPCG:  Solving for p, Initial residual = 0.0480052, Final residual = 0.00213249, No Iterations 12
time step continuity errors : sum local = 8.45236e-05, global = 2.14839e-06, cumulative = -0.0288641
smoothSolver:  Solving for omega, Initial residual = 0.00135092, Final residual = 0.000104128, No Iterations 1
smoothSolver:  Solving for k, Initial residual = 0.00147951, Final residual = 0.000139884, No Iterations 1
ExecutionTime = 715.131 s  ClockTime = 716 s

volFieldValue Uavg_propeller write:
    volAverage(propeller) of U = (0.0875672 0.023776 -1.54283)

surfaceFieldValue phi_farField write:
    orientedSum(farField) of phi = -0.176865

surfaceFieldValue phi_top write:
    orientedSum(top) of phi = 0.176968

Time = 986s

smoothSolver:  Solving for Ux, Initial residual = 0.00237203, Final residual = 0.000228506, No Iterations 1
smoothSolver:  Solving for Uy, Initial residual = 0.00263759, Final residual = 0.000257118, No Iterations 1
smoothSolver:  Solving for Uz, Initial residual = 0.00257411, Final residual = 0.00024927, No Iterations 1
DICPCG:  Solving for p, Initial residual = 0.0478074, Final residual = 0.00210215, No Iterations 12
time step continuity errors : sum local = 8.35377e-05, global = 2.22477e-06, cumulative = -0.0288618
smoothSolver:  Solving for omega, Initial residual = 0.001348, Final residual = 0.000103876, No Iterations 1
smoothSolver:  Solving for k, Initial residual = 0.00147857, Final residual = 0.000139841, No Iterations 1
ExecutionTime = 715.786 s  ClockTime = 717 s

volFieldValue Uavg_propeller write:
    volAverage(propeller) of U = (0.0882439 0.0237842 -1.54279)

surfaceFieldValue phi_farField write:
    orientedSum(farField) of phi = -0.179447

surfaceFieldValue phi_top write:
    orientedSum(top) of phi = 0.179554

Time = 987s

smoothSolver:  Solving for Ux, Initial residual = 0.00237031, Final residual = 0.000228333, No Iterations 1
smoothSolver:  Solving for Uy, Initial residual = 0.00262642, Final residual = 0.000255995, No Iterations 1
smoothSolver:  Solving for Uz, Initial residual = 0.00256646, Final residual = 0.00024853, No Iterations 1
DICPCG:  Solving for p, Initial residual = 0.0480295, Final residual = 0.00231965, No Iterations 11
time step continuity errors : sum local = 9.243e-05, global = 1.66865e-06, cumulative = -0.0288602
smoothSolver:  Solving for omega, Initial residual = 0.00134484, Final residual = 0.00010363, No Iterations 1
smoothSolver:  Solving for k, Initial residual = 0.00147782, Final residual = 0.000139755, No Iterations 1
ExecutionTime = 716.51 s  ClockTime = 717 s

volFieldValue Uavg_propeller write:
    volAverage(propeller) of U = (0.08892 0.0237933 -1.54275)

surfaceFieldValue phi_farField write:
    orientedSum(farField) of phi = -0.182221

surfaceFieldValue phi_top write:
    orientedSum(top) of phi = 0.182301

Time = 988s

smoothSolver:  Solving for Ux, Initial residual = 0.00236794, Final residual = 0.000228123, No Iterations 1
smoothSolver:  Solving for Uy, Initial residual = 0.00261525, Final residual = 0.000254923, No Iterations 1
smoothSolver:  Solving for Uz, Initial residual = 0.0025586, Final residual = 0.000247783, No Iterations 1
DICPCG:  Solving for p, Initial residual = 0.047789, Final residual = 0.00229374, No Iterations 11
time step continuity errors : sum local = 9.16544e-05, global = 1.36302e-06, cumulative = -0.0288588
smoothSolver:  Solving for omega, Initial residual = 0.00134094, Final residual = 0.00010337, No Iterations 1
smoothSolver:  Solving for k, Initial residual = 0.0014767, Final residual = 0.000139689, No Iterations 1
ExecutionTime = 717.155 s  ClockTime = 718 s

volFieldValue Uavg_propeller write:
    volAverage(propeller) of U = (0.0895954 0.0238036 -1.54271)

surfaceFieldValue phi_farField write:
    orientedSum(farField) of phi = -0.184999

surfaceFieldValue phi_top write:
    orientedSum(top) of phi = 0.185064

Time = 989s

smoothSolver:  Solving for Ux, Initial residual = 0.00236554, Final residual = 0.000227881, No Iterations 1
smoothSolver:  Solving for Uy, Initial residual = 0.00260467, Final residual = 0.000253883, No Iterations 1
smoothSolver:  Solving for Uz, Initial residual = 0.00255073, Final residual = 0.000247045, No Iterations 1
DICPCG:  Solving for p, Initial residual = 0.047023, Final residual = 0.00223479, No Iterations 11
time step continuity errors : sum local = 8.95306e-05, global = 8.25956e-07, cumulative = -0.028858
smoothSolver:  Solving for omega, Initial residual = 0.00133848, Final residual = 0.000103066, No Iterations 1
smoothSolver:  Solving for k, Initial residual = 0.00147634, Final residual = 0.000139661, No Iterations 1
ExecutionTime = 717.818 s  ClockTime = 719 s

volFieldValue Uavg_propeller write:
    volAverage(propeller) of U = (0.0902698 0.0238154 -1.54267)

surfaceFieldValue phi_farField write:
    orientedSum(farField) of phi = -0.187839

surfaceFieldValue phi_top write:
    orientedSum(top) of phi = 0.187878

Time = 990s

smoothSolver:  Solving for Ux, Initial residual = 0.00236291, Final residual = 0.000227614, No Iterations 1
smoothSolver:  Solving for Uy, Initial residual = 0.00259446, Final residual = 0.000252849, No Iterations 1
smoothSolver:  Solving for Uz, Initial residual = 0.0025432, Final residual = 0.000246336, No Iterations 1
DICPCG:  Solving for p, Initial residual = 0.0466584, Final residual = 0.00224819, No Iterations 11
time step continuity errors : sum local = 9.03953e-05, global = 5.29211e-07, cumulative = -0.0288575
smoothSolver:  Solving for omega, Initial residual = 0.00133825, Final residual = 0.000103039, No Iterations 1
smoothSolver:  Solving for k, Initial residual = 0.00147707, Final residual = 0.00013969, No Iterations 1
ExecutionTime = 718.467 s  ClockTime = 719 s

volFieldValue Uavg_propeller write:
    volAverage(propeller) of U = (0.0909429 0.0238287 -1.54263)

surfaceFieldValue phi_farField write:
    orientedSum(farField) of phi = -0.190761

surfaceFieldValue phi_top write:
    orientedSum(top) of phi = 0.190787

Time = 991s

smoothSolver:  Solving for Ux, Initial residual = 0.00235976, Final residual = 0.00022732, No Iterations 1
smoothSolver:  Solving for Uy, Initial residual = 0.00258426, Final residual = 0.000251844, No Iterations 1
smoothSolver:  Solving for Uz, Initial residual = 0.00253681, Final residual = 0.000245685, No Iterations 1
DICPCG:  Solving for p, Initial residual = 0.0462791, Final residual = 0.00230976, No Iterations 11
time step continuity errors : sum local = 9.3197e-05, global = 6.78757e-07, cumulative = -0.0288568
smoothSolver:  Solving for omega, Initial residual = 0.00134205, Final residual = 0.000102969, No Iterations 1
smoothSolver:  Solving for k, Initial residual = 0.00147875, Final residual = 0.000139806, No Iterations 1
ExecutionTime = 719.167 s  ClockTime = 720 s

volFieldValue Uavg_propeller write:
    volAverage(propeller) of U = (0.0916146 0.0238439 -1.54258)

surfaceFieldValue phi_farField write:
    orientedSum(farField) of phi = -0.193711

surfaceFieldValue phi_top write:
    orientedSum(top) of phi = 0.193744

Time = 992s

smoothSolver:  Solving for Ux, Initial residual = 0.00235675, Final residual = 0.000227029, No Iterations 1
smoothSolver:  Solving for Uy, Initial residual = 0.00257406, Final residual = 0.000250827, No Iterations 1
smoothSolver:  Solving for Uz, Initial residual = 0.00253098, Final residual = 0.000245109, No Iterations 1
DICPCG:  Solving for p, Initial residual = 0.0462105, Final residual = 0.00210242, No Iterations 12
time step continuity errors : sum local = 8.51591e-05, global = 2.06664e-06, cumulative = -0.0288547
smoothSolver:  Solving for omega, Initial residual = 0.00134007, Final residual = 0.000102851, No Iterations 1
smoothSolver:  Solving for k, Initial residual = 0.00147713, Final residual = 0.000139605, No Iterations 1
ExecutionTime = 719.893 s  ClockTime = 721 s

volFieldValue Uavg_propeller write:
    volAverage(propeller) of U = (0.0922848 0.0238612 -1.54254)

surfaceFieldValue phi_farField write:
    orientedSum(farField) of phi = -0.196625

surfaceFieldValue phi_top write:
    orientedSum(top) of phi = 0.196724

Time = 993s

smoothSolver:  Solving for Ux, Initial residual = 0.0023541, Final residual = 0.000226774, No Iterations 1
smoothSolver:  Solving for Uy, Initial residual = 0.00256405, Final residual = 0.000249831, No Iterations 1
smoothSolver:  Solving for Uz, Initial residual = 0.00252476, Final residual = 0.000244487, No Iterations 1
DICPCG:  Solving for p, Initial residual = 0.0459271, Final residual = 0.0020516, No Iterations 12
time step continuity errors : sum local = 8.33808e-05, global = 2.68616e-06, cumulative = -0.028852
smoothSolver:  Solving for omega, Initial residual = 0.00133807, Final residual = 0.000102627, No Iterations 1
smoothSolver:  Solving for k, Initial residual = 0.00147632, Final residual = 0.000139612, No Iterations 1
ExecutionTime = 720.693 s  ClockTime = 722 s

volFieldValue Uavg_propeller write:
    volAverage(propeller) of U = (0.0929533 0.023881 -1.54249)

surfaceFieldValue phi_farField write:
    orientedSum(farField) of phi = -0.19967

surfaceFieldValue phi_top write:
    orientedSum(top) of phi = 0.199799

Time = 994s

smoothSolver:  Solving for Ux, Initial residual = 0.00235158, Final residual = 0.00022653, No Iterations 1
smoothSolver:  Solving for Uy, Initial residual = 0.00255415, Final residual = 0.00024886, No Iterations 1
smoothSolver:  Solving for Uz, Initial residual = 0.00251845, Final residual = 0.00024387, No Iterations 1
DICPCG:  Solving for p, Initial residual = 0.0461493, Final residual = 0.00222587, No Iterations 11
time step continuity errors : sum local = 9.07118e-05, global = 2.57561e-06, cumulative = -0.0288494
smoothSolver:  Solving for omega, Initial residual = 0.00133672, Final residual = 0.000102461, No Iterations 1
smoothSolver:  Solving for k, Initial residual = 0.00147555, Final residual = 0.000139568, No Iterations 1
ExecutionTime = 721.348 s  ClockTime = 722 s

volFieldValue Uavg_propeller write:
    volAverage(propeller) of U = (0.09362 0.0239038 -1.54245)

surfaceFieldValue phi_farField write:
    orientedSum(farField) of phi = -0.202862

surfaceFieldValue phi_top write:
    orientedSum(top) of phi = 0.202986

Time = 995s

smoothSolver:  Solving for Ux, Initial residual = 0.00234853, Final residual = 0.000226256, No Iterations 1
smoothSolver:  Solving for Uy, Initial residual = 0.00254476, Final residual = 0.000247927, No Iterations 1
smoothSolver:  Solving for Uz, Initial residual = 0.00251143, Final residual = 0.000243208, No Iterations 1
DICPCG:  Solving for p, Initial residual = 0.0460869, Final residual = 0.00226369, No Iterations 11
time step continuity errors : sum local = 9.2397e-05, global = 3.53537e-06, cumulative = -0.0288459
smoothSolver:  Solving for omega, Initial residual = 0.00133378, Final residual = 0.000102188, No Iterations 1
smoothSolver:  Solving for k, Initial residual = 0.00147553, Final residual = 0.000139605, No Iterations 1
ExecutionTime = 722.021 s  ClockTime = 723 s

volFieldValue Uavg_propeller write:
    volAverage(propeller) of U = (0.0942846 0.0239303 -1.5424)

surfaceFieldValue phi_farField write:
    orientedSum(farField) of phi = -0.20599

surfaceFieldValue phi_top write:
    orientedSum(top) of phi = 0.20616

Time = 996s

smoothSolver:  Solving for Ux, Initial residual = 0.00234593, Final residual = 0.000225977, No Iterations 1
smoothSolver:  Solving for Uy, Initial residual = 0.00253523, Final residual = 0.000247022, No Iterations 1
smoothSolver:  Solving for Uz, Initial residual = 0.00250473, Final residual = 0.000242587, No Iterations 1
DICPCG:  Solving for p, Initial residual = 0.0458384, Final residual = 0.00214633, No Iterations 11
time step continuity errors : sum local = 8.76709e-05, global = 4.08806e-06, cumulative = -0.0288418
smoothSolver:  Solving for omega, Initial residual = 0.00132979, Final residual = 0.000101873, No Iterations 1
smoothSolver:  Solving for k, Initial residual = 0.00147531, Final residual = 0.000139575, No Iterations 1
ExecutionTime = 722.664 s  ClockTime = 724 s

volFieldValue Uavg_propeller write:
    volAverage(propeller) of U = (0.0949471 0.0239605 -1.54235)

surfaceFieldValue phi_farField write:
    orientedSum(farField) of phi = -0.209162

surfaceFieldValue phi_top write:
    orientedSum(top) of phi = 0.209358

Time = 997s

smoothSolver:  Solving for Ux, Initial residual = 0.00234263, Final residual = 0.000225682, No Iterations 1
smoothSolver:  Solving for Uy, Initial residual = 0.00252579, Final residual = 0.000246125, No Iterations 1
smoothSolver:  Solving for Uz, Initial residual = 0.00249862, Final residual = 0.000242014, No Iterations 1
DICPCG:  Solving for p, Initial residual = 0.0455071, Final residual = 0.00219832, No Iterations 11
time step continuity errors : sum local = 8.98636e-05, global = 4.71546e-06, cumulative = -0.0288371
smoothSolver:  Solving for omega, Initial residual = 0.00132489, Final residual = 0.000101553, No Iterations 1
smoothSolver:  Solving for k, Initial residual = 0.00147478, Final residual = 0.000139545, No Iterations 1
ExecutionTime = 723.32 s  ClockTime = 724 s

volFieldValue Uavg_propeller write:
    volAverage(propeller) of U = (0.0956072 0.0239948 -1.5423)

surfaceFieldValue phi_farField write:
    orientedSum(farField) of phi = -0.212341

surfaceFieldValue phi_top write:
    orientedSum(top) of phi = 0.212568

Time = 998s

smoothSolver:  Solving for Ux, Initial residual = 0.00233985, Final residual = 0.000225385, No Iterations 1
smoothSolver:  Solving for Uy, Initial residual = 0.00251669, Final residual = 0.000245225, No Iterations 1
smoothSolver:  Solving for Uz, Initial residual = 0.00249297, Final residual = 0.000241466, No Iterations 1
DICPCG:  Solving for p, Initial residual = 0.0453358, Final residual = 0.00219076, No Iterations 11
time step continuity errors : sum local = 8.96098e-05, global = 5.55955e-06, cumulative = -0.0288316
smoothSolver:  Solving for omega, Initial residual = 0.00132398, Final residual = 0.000101473, No Iterations 1
smoothSolver:  Solving for k, Initial residual = 0.00147501, Final residual = 0.000139565, No Iterations 1
ExecutionTime = 723.996 s  ClockTime = 725 s

volFieldValue Uavg_propeller write:
    volAverage(propeller) of U = (0.0962647 0.0240334 -1.54225)

surfaceFieldValue phi_farField write:
    orientedSum(farField) of phi = -0.215547

surfaceFieldValue phi_top write:
    orientedSum(top) of phi = 0.215814

Time = 999s

smoothSolver:  Solving for Ux, Initial residual = 0.00233682, Final residual = 0.000225084, No Iterations 1
smoothSolver:  Solving for Uy, Initial residual = 0.00250797, Final residual = 0.00024434, No Iterations 1
smoothSolver:  Solving for Uz, Initial residual = 0.00248804, Final residual = 0.000240971, No Iterations 1
DICPCG:  Solving for p, Initial residual = 0.0453834, Final residual = 0.00198187, No Iterations 12
time step continuity errors : sum local = 8.10891e-05, global = 7.1076e-06, cumulative = -0.0288244
smoothSolver:  Solving for omega, Initial residual = 0.00132234, Final residual = 0.000101286, No Iterations 1
smoothSolver:  Solving for k, Initial residual = 0.00147543, Final residual = 0.000139588, No Iterations 1
ExecutionTime = 724.687 s  ClockTime = 726 s

volFieldValue Uavg_propeller write:
    volAverage(propeller) of U = (0.0969192 0.0240762 -1.5422)

surfaceFieldValue phi_farField write:
    orientedSum(farField) of phi = -0.218685

surfaceFieldValue phi_top write:
    orientedSum(top) of phi = 0.219026

Time = 1000s

smoothSolver:  Solving for Ux, Initial residual = 0.0023343, Final residual = 0.00022485, No Iterations 1
smoothSolver:  Solving for Uy, Initial residual = 0.00249906, Final residual = 0.000243446, No Iterations 1
smoothSolver:  Solving for Uz, Initial residual = 0.00248398, Final residual = 0.000240573, No Iterations 1
DICPCG:  Solving for p, Initial residual = 0.0455691, Final residual = 0.00202974, No Iterations 12
time step continuity errors : sum local = 8.29926e-05, global = 7.38119e-06, cumulative = -0.0288171
smoothSolver:  Solving for omega, Initial residual = 0.00132308, Final residual = 0.000101204, No Iterations 1
smoothSolver:  Solving for k, Initial residual = 0.00147626, Final residual = 0.000139628, No Iterations 1
ExecutionTime = 726.381 s  ClockTime = 727 s

volFieldValue Uavg_propeller write:
    volAverage(propeller) of U = (0.0975706 0.0241235 -1.54215)

surfaceFieldValue phi_farField write:
    orientedSum(farField) of phi = -0.221957

surfaceFieldValue phi_top write:
    orientedSum(top) of phi = 0.222311

End

