/*---------------------------------------------------------------------------*\
  =========                 |
  \\      /  F ield         | OpenFOAM: The Open Source CFD Toolbox
   \\    /   O peration     | Website:  https://openfoam.org
    \\  /    A nd           | Version:  13
     \\/     M anipulation  |
\*---------------------------------------------------------------------------*/
Build  : 13-cde978a97c93
Exec   : foamRun
Date   : Mar 05 2026
Time   : 11:44:26
Host   : "JOO-DESKTOP"
PID    : 40230
I/O    : uncollated
Case   : /home/joo/OpenFOAM/joo-13/run/trackB_propellerIGE_v13/cases/sweep_baselineHover/hR0p5
nProcs : 1
sigFpe : Enabling floating point exception trapping (FOAM_SIGFPE).
fileModificationChecking : Monitoring run-time modified files using timeStampMaster (fileModificationSkew 10)
allowSystemOperations : Allowing user-supplied system call operations

// * * * * * * * * * * * * * * * * * * * * * * * * * * * * * * * * * * * * * //
Create time

Create mesh for time = 0

Selecting solver incompressibleFluid
Selecting viscosity model constant
Selecting turbulence model type RAS
    Selecting RAS turbulence model kOmegaSST
No MRF models present

Selecting patchDistMethod meshWave
Creating fvModels from "constant/fvModels"

Selecting finite volume model type propellerDisk
    Name: diskSource

SIMPLE: Convergence criteria found
        p: tolerance 0.0001
        U: tolerance 1e-05
        k: tolerance 1e-05
        omega: tolerance 1e-05


SIMPLE: Operating solver in steady-state mode with 1 outer corrector
SIMPLE: Operating solver in SIMPLE mode



Starting time loop

Reading set description:
    line

volFieldValue Uavg_propeller read:
    number of cells = 104
    volume = 0.0126953
    operation = volAverage

surfaceFieldValue phi_farField read:
    number of faces = 24576
    area = 48
    operation = orientedSum

surfaceFieldValue phi_top read:
    number of faces = 4096
    area = 16
    operation = orientedSum

volFieldValue Uavg_propeller write:
    volAverage(propeller) of U = (0 0 -0.01)

surfaceFieldValue phi_farField write:
    orientedSum(farField) of phi = 0

surfaceFieldValue phi_top write:
    orientedSum(top) of phi = 0

Time = 1s

--> FOAM Warning : 
    From function void Foam::Function1s::Table<Type>::checkX(Foam::scalar) const [with Type = Foam::Vector2D<double>; Foam::scalar = double]
    in file lnInclude/Table.C at line 107
    "value (-97.489) underflow"

smoothSolver:  Solving for Ux, Initial residual = 1, Final residual = 0.0274236, No Iterations 1
smoothSolver:  Solving for Uy, Initial residual = 1, Final residual = 0.0274236, No Iterations 1
smoothSolver:  Solving for Uz, Initial residual = 1, Final residual = 0.0279087, No Iterations 1
DICPCG:  Solving for p, Initial residual = 1, Final residual = 0.0495198, No Iterations 11
time step continuity errors : sum local = 0.0396611, global = -0.00222498, cumulative = -0.00222498
smoothSolver:  Solving for omega, Initial residual = 0.287977, Final residual = 0.0189747, No Iterations 1
smoothSolver:  Solving for k, Initial residual = 1, Final residual = 0.0293612, No Iterations 1
ExecutionTime = 4.02443 s  ClockTime = 4 s

volFieldValue Uavg_propeller write:
    volAverage(propeller) of U = (-0.00119271 -0.000941871 -82.1069)

surfaceFieldValue phi_farField write:
    orientedSum(farField) of phi = 0.053201

surfaceFieldValue phi_top write:
    orientedSum(top) of phi = -0.16

Time = 2s

--> FOAM Warning : 
    From function void Foam::Function1s::Table<Type>::checkX(Foam::scalar) const [with Type = Foam::Vector2D<double>; Foam::scalar = double]
    in file lnInclude/Table.C at line 107
    "value (27.369) overflow"

--> FOAM Warning : 
    From function void Foam::Function1s::Table<Type>::checkX(Foam::scalar) const [with Type = Foam::Vector2D<double>; Foam::scalar = double]
    in file lnInclude/Table.C at line 107
    "value (27.3677) overflow"

smoothSolver:  Solving for Ux, Initial residual = 0.245794, Final residual = 0.0145913, No Iterations 1
smoothSolver:  Solving for Uy, Initial residual = 0.245837, Final residual = 0.0139747, No Iterations 1
smoothSolver:  Solving for Uz, Initial residual = 0.256354, Final residual = 0.0154023, No Iterations 1
DICPCG:  Solving for p, Initial residual = 0.988219, Final residual = 0.049095, No Iterations 28
time step continuity errors : sum local = 0.0346969, global = 0.00528842, cumulative = 0.00306344
smoothSolver:  Solving for omega, Initial residual = 0.097489, Final residual = 0.00465357, No Iterations 1
smoothSolver:  Solving for k, Initial residual = 0.0804611, Final residual = 0.00367848, No Iterations 1
ExecutionTime = 4.87697 s  ClockTime = 5 s

volFieldValue Uavg_propeller write:
    volAverage(propeller) of U = (0.0312969 -0.00449146 -55.8532)

surfaceFieldValue phi_farField write:
    orientedSum(farField) of phi = 0.416941

surfaceFieldValue phi_top write:
    orientedSum(top) of phi = -0.163097

Time = 3s

--> FOAM Warning : 
    From function void Foam::Function1s::Table<Type>::checkX(Foam::scalar) const [with Type = Foam::Vector2D<double>; Foam::scalar = double]
    in file lnInclude/Table.C at line 107
    "value (18.6177) overflow"

--> FOAM Warning : 
    From function void Foam::Function1s::Table<Type>::checkX(Foam::scalar) const [with Type = Foam::Vector2D<double>; Foam::scalar = double]
    in file lnInclude/Table.C at line 107
    "value (18.6158) overflow"

smoothSolver:  Solving for Ux, Initial residual = 0.221764, Final residual = 0.0128843, No Iterations 1
smoothSolver:  Solving for Uy, Initial residual = 0.221453, Final residual = 0.0115855, No Iterations 1
smoothSolver:  Solving for Uz, Initial residual = 0.238956, Final residual = 0.0120218, No Iterations 1
DICPCG:  Solving for p, Initial residual = 0.015282, Final residual = 0.000723246, No Iterations 14
time step continuity errors : sum local = 0.0261079, global = -0.000455156, cumulative = 0.00260828
smoothSolver:  Solving for omega, Initial residual = 0.0849088, Final residual = 0.00481465, No Iterations 1
smoothSolver:  Solving for k, Initial residual = 0.0763631, Final residual = 0.00363596, No Iterations 1
ExecutionTime = 5.59494 s  ClockTime = 6 s

volFieldValue Uavg_propeller write:
    volAverage(propeller) of U = (0.0315081 -0.0234369 -30.2738)

surfaceFieldValue phi_farField write:
    orientedSum(farField) of phi = 0.162182

surfaceFieldValue phi_top write:
    orientedSum(top) of phi = -0.184029

Time = 4s

--> FOAM Warning : 
    From function void Foam::Function1s::Table<Type>::checkX(Foam::scalar) const [with Type = Foam::Vector2D<double>; Foam::scalar = double]
    in file lnInclude/Table.C at line 107
    "value (10.0913) overflow"

--> FOAM Warning : 
    From function void Foam::Function1s::Table<Type>::checkX(Foam::scalar) const [with Type = Foam::Vector2D<double>; Foam::scalar = double]
    in file lnInclude/Table.C at line 107
    "value (10.0878) overflow"

smoothSolver:  Solving for Ux, Initial residual = 0.212812, Final residual = 0.0123947, No Iterations 1
smoothSolver:  Solving for Uy, Initial residual = 0.212128, Final residual = 0.012418, No Iterations 1
smoothSolver:  Solving for Uz, Initial residual = 0.29776, Final residual = 0.0199457, No Iterations 1
DICPCG:  Solving for p, Initial residual = 0.00886759, Final residual = 0.000441542, No Iterations 21
time step continuity errors : sum local = 0.0246164, global = 0.00981711, cumulative = 0.0124254
smoothSolver:  Solving for omega, Initial residual = 0.0682078, Final residual = 0.0041038, No Iterations 1
smoothSolver:  Solving for k, Initial residual = 0.0643714, Final residual = 0.00330607, No Iterations 1
ExecutionTime = 6.32607 s  ClockTime = 6 s

volFieldValue Uavg_propeller write:
    volAverage(propeller) of U = (0.0314064 -0.0340582 -10.581)

surfaceFieldValue phi_farField write:
    orientedSum(farField) of phi = 0.690049

surfaceFieldValue phi_top write:
    orientedSum(top) of phi = -0.218828

Time = 5s

--> FOAM Warning : 
    From function void Foam::Function1s::Table<Type>::checkX(Foam::scalar) const [with Type = Foam::Vector2D<double>; Foam::scalar = double]
    in file lnInclude/Table.C at line 107
    "value (3.527) overflow"

--> FOAM Warning : 
    From function void Foam::Function1s::Table<Type>::checkX(Foam::scalar) const [with Type = Foam::Vector2D<double>; Foam::scalar = double]
    in file lnInclude/Table.C at line 107
    "value (3.51704) overflow"

smoothSolver:  Solving for Ux, Initial residual = 0.159867, Final residual = 0.00928241, No Iterations 1
smoothSolver:  Solving for Uy, Initial residual = 0.159356, Final residual = 0.00949375, No Iterations 1
smoothSolver:  Solving for Uz, Initial residual = 0.427428, Final residual = 0.029483, No Iterations 1
DICPCG:  Solving for p, Initial residual = 0.0177432, Final residual = 0.000879954, No Iterations 26
time step continuity errors : sum local = 0.0301931, global = 0.014342, cumulative = 0.0267674
smoothSolver:  Solving for omega, Initial residual = 0.0618451, Final residual = 0.00357862, No Iterations 1
smoothSolver:  Solving for k, Initial residual = 0.0590481, Final residual = 0.00311031, No Iterations 1
ExecutionTime = 7.16621 s  ClockTime = 7 s

volFieldValue Uavg_propeller write:
    volAverage(propeller) of U = (0.0638321 -0.0445187 0.396811)

surfaceFieldValue phi_farField write:
    orientedSum(farField) of phi = 0.953089

surfaceFieldValue phi_top write:
    orientedSum(top) of phi = -0.264671

Time = 6s

--> FOAM Warning : 
    From function void Foam::Function1s::Table<Type>::checkX(Foam::scalar) const [with Type = Foam::Vector2D<double>; Foam::scalar = double]
    in file lnInclude/Table.C at line 107
    "value (-2.24939) underflow"

smoothSolver:  Solving for Ux, Initial residual = 0.10573, Final residual = 0.00630788, No Iterations 1
smoothSolver:  Solving for Uy, Initial residual = 0.105562, Final residual = 0.0063363, No Iterations 1
smoothSolver:  Solving for Uz, Initial residual = 0.330858, Final residual = 0.0223135, No Iterations 1
DICPCG:  Solving for p, Initial residual = 0.305211, Final residual = 0.0140933, No Iterations 26
time step continuity errors : sum local = 0.0352273, global = 0.0164649, cumulative = 0.0432323
smoothSolver:  Solving for omega, Initial residual = 0.0513638, Final residual = 0.00288656, No Iterations 1
smoothSolver:  Solving for k, Initial residual = 0.0554346, Final residual = 0.00295077, No Iterations 1
ExecutionTime = 7.97928 s  ClockTime = 8 s

volFieldValue Uavg_propeller write:
    volAverage(propeller) of U = (0.112359 -0.0284051 2.08995)

surfaceFieldValue phi_farField write:
    orientedSum(farField) of phi = 1.08594

surfaceFieldValue phi_top write:
    orientedSum(top) of phi = -0.295624

Time = 7s

smoothSolver:  Solving for Ux, Initial residual = 0.0840707, Final residual = 0.00515478, No Iterations 1
smoothSolver:  Solving for Uy, Initial residual = 0.084104, Final residual = 0.00517592, No Iterations 1
smoothSolver:  Solving for Uz, Initial residual = 0.176106, Final residual = 0.0103023, No Iterations 1
DICPCG:  Solving for p, Initial residual = 0.0232032, Final residual = 0.00110998, No Iterations 22
time step continuity errors : sum local = 0.0366893, global = 0.0203326, cumulative = 0.0635649
smoothSolver:  Solving for omega, Initial residual = 0.0428885, Final residual = 0.002408, No Iterations 1
smoothSolver:  Solving for k, Initial residual = 0.0540557, Final residual = 0.00289651, No Iterations 1
ExecutionTime = 8.74199 s  ClockTime = 9 s

volFieldValue Uavg_propeller write:
    volAverage(propeller) of U = (0.155674 -0.0178122 -1.71811)

surfaceFieldValue phi_farField write:
    orientedSum(farField) of phi = 1.29499

surfaceFieldValue phi_top write:
    orientedSum(top) of phi = -0.319028

Time = 8s

smoothSolver:  Solving for Ux, Initial residual = 0.0981046, Final residual = 0.00555937, No Iterations 1
smoothSolver:  Solving for Uy, Initial residual = 0.0983368, Final residual = 0.00585417, No Iterations 1
smoothSolver:  Solving for Uz, Initial residual = 0.16318, Final residual = 0.0092804, No Iterations 1
DICPCG:  Solving for p, Initial residual = 0.0118488, Final residual = 0.0005911, No Iterations 20
time step continuity errors : sum local = 0.0324775, global = 0.0193287, cumulative = 0.0828935
smoothSolver:  Solving for omega, Initial residual = 0.03958, Final residual = 0.00217542, No Iterations 1
smoothSolver:  Solving for k, Initial residual = 0.0569108, Final residual = 0.00304435, No Iterations 1
ExecutionTime = 9.46869 s  ClockTime = 9 s

volFieldValue Uavg_propeller write:
    volAverage(propeller) of U = (0.172462 -0.00662525 -5.79111)

surfaceFieldValue phi_farField write:
    orientedSum(farField) of phi = 1.27627

surfaceFieldValue phi_top write:
    orientedSum(top) of phi = -0.348492

Time = 9s

--> FOAM Warning : 
    From function void Foam::Function1s::Table<Type>::checkX(Foam::scalar) const [with Type = Foam::Vector2D<double>; Foam::scalar = double]
    in file lnInclude/Table.C at line 107
    "value (1.93037) overflow"

--> FOAM Warning : 
    From function void Foam::Function1s::Table<Type>::checkX(Foam::scalar) const [with Type = Foam::Vector2D<double>; Foam::scalar = double]
    in file lnInclude/Table.C at line 107
    "value (1.91218) overflow"

smoothSolver:  Solving for Ux, Initial residual = 0.107973, Final residual = 0.0057688, No Iterations 1
smoothSolver:  Solving for Uy, Initial residual = 0.108382, Final residual = 0.00619222, No Iterations 1
smoothSolver:  Solving for Uz, Initial residual = 0.231212, Final residual = 0.0154251, No Iterations 1
DICPCG:  Solving for p, Initial residual = 0.00872082, Final residual = 0.000399707, No Iterations 23
time step continuity errors : sum local = 0.0229936, global = 0.00892309, cumulative = 0.0918166
smoothSolver:  Solving for omega, Initial residual = 0.0373203, Final residual = 0.00209962, No Iterations 1
smoothSolver:  Solving for k, Initial residual = 0.061084, Final residual = 0.00326631, No Iterations 1
ExecutionTime = 10.2409 s  ClockTime = 10 s

volFieldValue Uavg_propeller write:
    volAverage(propeller) of U = (0.140366 0.0359283 -7.42533)

surfaceFieldValue phi_farField write:
    orientedSum(farField) of phi = 0.836222

surfaceFieldValue phi_top write:
    orientedSum(top) of phi = -0.407913

Time = 10s

--> FOAM Warning : 
    From function void Foam::Function1s::Table<Type>::checkX(Foam::scalar) const [with Type = Foam::Vector2D<double>; Foam::scalar = double]
    in file lnInclude/Table.C at line 107
    "value (2.47511) overflow"

--> FOAM Warning : 
    From function void Foam::Function1s::Table<Type>::checkX(Foam::scalar) const [with Type = Foam::Vector2D<double>; Foam::scalar = double]
    in file lnInclude/Table.C at line 107
    "value (2.46092) overflow"

smoothSolver:  Solving for Ux, Initial residual = 0.107412, Final residual = 0.00552646, No Iterations 1
smoothSolver:  Solving for Uy, Initial residual = 0.107985, Final residual = 0.00591914, No Iterations 1
smoothSolver:  Solving for Uz, Initial residual = 0.226259, Final residual = 0.0147233, No Iterations 1
DICPCG:  Solving for p, Initial residual = 0.0111735, Final residual = 0.000531468, No Iterations 20
time step continuity errors : sum local = 0.0252328, global = 0.0114848, cumulative = 0.103301
smoothSolver:  Solving for omega, Initial residual = 0.0371406, Final residual = 0.00207543, No Iterations 1
smoothSolver:  Solving for k, Initial residual = 0.0640486, Final residual = 0.00342987, No Iterations 1
ExecutionTime = 11.0438 s  ClockTime = 11 s

volFieldValue Uavg_propeller write:
    volAverage(propeller) of U = (0.12713 -0.109588 -7.24058)

surfaceFieldValue phi_farField write:
    orientedSum(farField) of phi = 0.998612

surfaceFieldValue phi_top write:
    orientedSum(top) of phi = -0.447341

Time = 11s

--> FOAM Warning : 
    From function void Foam::Function1s::Table<Type>::checkX(Foam::scalar) const [with Type = Foam::Vector2D<double>; Foam::scalar = double]
    in file lnInclude/Table.C at line 107
    "value (2.41353) overflow"

--> FOAM Warning : 
    From function void Foam::Function1s::Table<Type>::checkX(Foam::scalar) const [with Type = Foam::Vector2D<double>; Foam::scalar = double]
    in file lnInclude/Table.C at line 107
    "value (2.39898) overflow"

smoothSolver:  Solving for Ux, Initial residual = 0.0992622, Final residual = 0.00500758, No Iterations 1
smoothSolver:  Solving for Uy, Initial residual = 0.0999715, Final residual = 0.00526065, No Iterations 1
smoothSolver:  Solving for Uz, Initial residual = 0.169923, Final residual = 0.0102178, No Iterations 1
DICPCG:  Solving for p, Initial residual = 0.0180101, Final residual = 0.000832387, No Iterations 19
time step continuity errors : sum local = 0.0291808, global = 0.00698009, cumulative = 0.110282
smoothSolver:  Solving for omega, Initial residual = 0.0384068, Final residual = 0.00208507, No Iterations 1
smoothSolver:  Solving for k, Initial residual = 0.0670681, Final residual = 0.00358775, No Iterations 1
ExecutionTime = 11.798 s  ClockTime = 12 s

volFieldValue Uavg_propeller write:
    volAverage(propeller) of U = (0.0892718 -0.0683088 -5.32497)

surfaceFieldValue phi_farField write:
    orientedSum(farField) of phi = 0.836344

surfaceFieldValue phi_top write:
    orientedSum(top) of phi = -0.501299

Time = 12s

--> FOAM Warning : 
    From function void Foam::Function1s::Table<Type>::checkX(Foam::scalar) const [with Type = Foam::Vector2D<double>; Foam::scalar = double]
    in file lnInclude/Table.C at line 107
    "value (1.77499) overflow"

--> FOAM Warning : 
    From function void Foam::Function1s::Table<Type>::checkX(Foam::scalar) const [with Type = Foam::Vector2D<double>; Foam::scalar = double]
    in file lnInclude/Table.C at line 107
    "value (1.75521) overflow"

smoothSolver:  Solving for Ux, Initial residual = 0.0927148, Final residual = 0.00464221, No Iterations 1
smoothSolver:  Solving for Uy, Initial residual = 0.09338, Final residual = 0.0047958, No Iterations 1
smoothSolver:  Solving for Uz, Initial residual = 0.127553, Final residual = 0.0066815, No Iterations 1
DICPCG:  Solving for p, Initial residual = 0.031797, Final residual = 0.00151898, No Iterations 17
time step continuity errors : sum local = 0.0321737, global = 0.00496225, cumulative = 0.115244
smoothSolver:  Solving for omega, Initial residual = 0.0386758, Final residual = 0.00206165, No Iterations 1
smoothSolver:  Solving for k, Initial residual = 0.0694495, Final residual = 0.00371606, No Iterations 1
ExecutionTime = 12.5103 s  ClockTime = 12 s

volFieldValue Uavg_propeller write:
    volAverage(propeller) of U = (0.0201068 0.0667343 -1.17872)

surfaceFieldValue phi_farField write:
    orientedSum(farField) of phi = 0.787255

surfaceFieldValue phi_top write:
    orientedSum(top) of phi = -0.549067

Time = 13s

smoothSolver:  Solving for Ux, Initial residual = 0.0880618, Final residual = 0.00450188, No Iterations 1
smoothSolver:  Solving for Uy, Initial residual = 0.0884024, Final residual = 0.00449796, No Iterations 1
smoothSolver:  Solving for Uz, Initial residual = 0.122466, Final residual = 0.00671043, No Iterations 1
DICPCG:  Solving for p, Initial residual = 0.0500803, Final residual = 0.00237562, No Iterations 14
time step continuity errors : sum local = 0.0306398, global = 0.00392558, cumulative = 0.119169
smoothSolver:  Solving for omega, Initial residual = 0.0379731, Final residual = 0.00196467, No Iterations 1
smoothSolver:  Solving for k, Initial residual = 0.0716476, Final residual = 0.00383059, No Iterations 1
ExecutionTime = 13.2034 s  ClockTime = 13 s

volFieldValue Uavg_propeller write:
    volAverage(propeller) of U = (-0.117131 0.0394379 2.12828)

surfaceFieldValue phi_farField write:
    orientedSum(farField) of phi = 0.775945

surfaceFieldValue phi_top write:
    orientedSum(top) of phi = -0.587517

Time = 14s

smoothSolver:  Solving for Ux, Initial residual = 0.0846167, Final residual = 0.00432021, No Iterations 1
smoothSolver:  Solving for Uy, Initial residual = 0.0852053, Final residual = 0.00429376, No Iterations 1
smoothSolver:  Solving for Uz, Initial residual = 0.139961, Final residual = 0.00874691, No Iterations 1
DICPCG:  Solving for p, Initial residual = 0.0618124, Final residual = 0.00277145, No Iterations 12
time step continuity errors : sum local = 0.024461, global = 0.00202873, cumulative = 0.121198
smoothSolver:  Solving for omega, Initial residual = 0.0369145, Final residual = 0.0019276, No Iterations 1
smoothSolver:  Solving for k, Initial residual = 0.0737401, Final residual = 0.00393597, No Iterations 1
ExecutionTime = 13.9133 s  ClockTime = 14 s

volFieldValue Uavg_propeller write:
    volAverage(propeller) of U = (-0.152832 0.00113 4.10155)

surfaceFieldValue phi_farField write:
    orientedSum(farField) of phi = 0.72575

surfaceFieldValue phi_top write:
    orientedSum(top) of phi = -0.628371

Time = 15s

--> FOAM Warning : 
    From function void Foam::Function1s::Table<Type>::checkX(Foam::scalar) const [with Type = Foam::Vector2D<double>; Foam::scalar = double]
    in file lnInclude/Table.C at line 107
    "value (1.36718) overflow"

--> FOAM Warning : 
    From function void Foam::Function1s::Table<Type>::checkX(Foam::scalar) const [with Type = Foam::Vector2D<double>; Foam::scalar = double]
    in file lnInclude/Table.C at line 107
    "value (1.3415) overflow"

smoothSolver:  Solving for Ux, Initial residual = 0.0807045, Final residual = 0.00416198, No Iterations 1
smoothSolver:  Solving for Uy, Initial residual = 0.0811674, Final residual = 0.00411507, No Iterations 1
smoothSolver:  Solving for Uz, Initial residual = 0.148568, Final residual = 0.00960401, No Iterations 1
DICPCG:  Solving for p, Initial residual = 0.0724879, Final residual = 0.00354491, No Iterations 17
time step continuity errors : sum local = 0.0264461, global = -0.00245868, cumulative = 0.118739
smoothSolver:  Solving for omega, Initial residual = 0.0355923, Final residual = 0.00187856, No Iterations 1
smoothSolver:  Solving for k, Initial residual = 0.0762248, Final residual = 0.00405, No Iterations 1
ExecutionTime = 14.7033 s  ClockTime = 15 s

volFieldValue Uavg_propeller write:
    volAverage(propeller) of U = (-0.149641 0.00152168 5.16508)

surfaceFieldValue phi_farField write:
    orientedSum(farField) of phi = 0.534659

surfaceFieldValue phi_top write:
    orientedSum(top) of phi = -0.652676

Time = 16s

--> FOAM Warning : 
    From function void Foam::Function1s::Table<Type>::checkX(Foam::scalar) const [with Type = Foam::Vector2D<double>; Foam::scalar = double]
    in file lnInclude/Table.C at line 107
    "value (1.72169) overflow"

--> FOAM Warning : 
    From function void Foam::Function1s::Table<Type>::checkX(Foam::scalar) const [with Type = Foam::Vector2D<double>; Foam::scalar = double]
    in file lnInclude/Table.C at line 107
    "value (1.7013) overflow"

smoothSolver:  Solving for Ux, Initial residual = 0.0762102, Final residual = 0.0039668, No Iterations 1
smoothSolver:  Solving for Uy, Initial residual = 0.0765647, Final residual = 0.00391413, No Iterations 1
smoothSolver:  Solving for Uz, Initial residual = 0.135928, Final residual = 0.00846423, No Iterations 1
DICPCG:  Solving for p, Initial residual = 0.0759887, Final residual = 0.00350847, No Iterations 19
time step continuity errors : sum local = 0.027984, global = -0.00020142, cumulative = 0.118538
smoothSolver:  Solving for omega, Initial residual = 0.0352129, Final residual = 0.00184835, No Iterations 1
smoothSolver:  Solving for k, Initial residual = 0.0777573, Final residual = 0.00411334, No Iterations 1
ExecutionTime = 15.4824 s  ClockTime = 15 s

volFieldValue Uavg_propeller write:
    volAverage(propeller) of U = (-0.0816766 0.0175857 4.96437)

surfaceFieldValue phi_farField write:
    orientedSum(farField) of phi = 0.616912

surfaceFieldValue phi_top write:
    orientedSum(top) of phi = -0.62658

Time = 17s

--> FOAM Warning : 
    From function void Foam::Function1s::Table<Type>::checkX(Foam::scalar) const [with Type = Foam::Vector2D<double>; Foam::scalar = double]
    in file lnInclude/Table.C at line 107
    "value (1.65479) overflow"

--> FOAM Warning : 
    From function void Foam::Function1s::Table<Type>::checkX(Foam::scalar) const [with Type = Foam::Vector2D<double>; Foam::scalar = double]
    in file lnInclude/Table.C at line 107
    "value (1.63357) overflow"

smoothSolver:  Solving for Ux, Initial residual = 0.0734361, Final residual = 0.00387168, No Iterations 1
smoothSolver:  Solving for Uy, Initial residual = 0.0736092, Final residual = 0.00383383, No Iterations 1
smoothSolver:  Solving for Uz, Initial residual = 0.11063, Final residual = 0.00646699, No Iterations 1
DICPCG:  Solving for p, Initial residual = 0.0683372, Final residual = 0.00310881, No Iterations 18
time step continuity errors : sum local = 0.0314327, global = 0.00396841, cumulative = 0.122506
smoothSolver:  Solving for omega, Initial residual = 0.035316, Final residual = 0.0018243, No Iterations 1
smoothSolver:  Solving for k, Initial residual = 0.078974, Final residual = 0.00415814, No Iterations 1
ExecutionTime = 16.2079 s  ClockTime = 16 s

volFieldValue Uavg_propeller write:
    volAverage(propeller) of U = (-0.0334903 0.0301362 3.70668)

surfaceFieldValue phi_farField write:
    orientedSum(farField) of phi = 0.766976

surfaceFieldValue phi_top write:
    orientedSum(top) of phi = -0.576492

Time = 18s

--> FOAM Warning : 
    From function void Foam::Function1s::Table<Type>::checkX(Foam::scalar) const [with Type = Foam::Vector2D<double>; Foam::scalar = double]
    in file lnInclude/Table.C at line 107
    "value (1.23556) overflow"

--> FOAM Warning : 
    From function void Foam::Function1s::Table<Type>::checkX(Foam::scalar) const [with Type = Foam::Vector2D<double>; Foam::scalar = double]
    in file lnInclude/Table.C at line 107
    "value (1.20714) overflow"

smoothSolver:  Solving for Ux, Initial residual = 0.0720733, Final residual = 0.00381246, No Iterations 1
smoothSolver:  Solving for Uy, Initial residual = 0.0721712, Final residual = 0.00380255, No Iterations 1
smoothSolver:  Solving for Uz, Initial residual = 0.094136, Final residual = 0.00507735, No Iterations 1
DICPCG:  Solving for p, Initial residual = 0.0549591, Final residual = 0.00272747, No Iterations 12
time step continuity errors : sum local = 0.035233, global = 0.011184, cumulative = 0.13369
smoothSolver:  Solving for omega, Initial residual = 0.0353342, Final residual = 0.00181933, No Iterations 1
smoothSolver:  Solving for k, Initial residual = 0.0796127, Final residual = 0.00418329, No Iterations 1
ExecutionTime = 16.9367 s  ClockTime = 17 s

volFieldValue Uavg_propeller write:
    volAverage(propeller) of U = (-0.00150747 0.0533382 1.88626)

surfaceFieldValue phi_farField write:
    orientedSum(farField) of phi = 1.10398

surfaceFieldValue phi_top write:
    orientedSum(top) of phi = -0.567147

Time = 19s

smoothSolver:  Solving for Ux, Initial residual = 0.0719426, Final residual = 0.00381949, No Iterations 1
smoothSolver:  Solving for Uy, Initial residual = 0.0721507, Final residual = 0.00382861, No Iterations 1
smoothSolver:  Solving for Uz, Initial residual = 0.0860733, Final residual = 0.00479733, No Iterations 1
DICPCG:  Solving for p, Initial residual = 0.0480731, Final residual = 0.00228838, No Iterations 15
time step continuity errors : sum local = 0.0315977, global = 0.0147192, cumulative = 0.14841
smoothSolver:  Solving for omega, Initial residual = 0.0349458, Final residual = 0.00179123, No Iterations 1
smoothSolver:  Solving for k, Initial residual = 0.0806321, Final residual = 0.00421898, No Iterations 1
ExecutionTime = 17.6976 s  ClockTime = 18 s

volFieldValue Uavg_propeller write:
    volAverage(propeller) of U = (-0.0180315 0.0811963 -0.188472)

surfaceFieldValue phi_farField write:
    orientedSum(farField) of phi = 1.12774

surfaceFieldValue phi_top write:
    orientedSum(top) of phi = -0.421222

Time = 20s

--> FOAM Warning : 
    From function void Foam::Function1s::Table<Type>::checkX(Foam::scalar) const [with Type = Foam::Vector2D<double>; Foam::scalar = double]
    in file lnInclude/Table.C at line 107
    "value (-5.10994) underflow"

smoothSolver:  Solving for Ux, Initial residual = 0.0716598, Final residual = 0.00382948, No Iterations 1
smoothSolver:  Solving for Uy, Initial residual = 0.0719004, Final residual = 0.00383391, No Iterations 1
smoothSolver:  Solving for Uz, Initial residual = 0.0836918, Final residual = 0.00491798, No Iterations 1
DICPCG:  Solving for p, Initial residual = 0.0324321, Final residual = 0.00153468, No Iterations 16
time step continuity errors : sum local = 0.0280195, global = 0.0172348, cumulative = 0.165644
smoothSolver:  Solving for omega, Initial residual = 0.0343266, Final residual = 0.00174722, No Iterations 1
smoothSolver:  Solving for k, Initial residual = 0.0808396, Final residual = 0.00422475, No Iterations 1
ExecutionTime = 18.5012 s  ClockTime = 18 s

volFieldValue Uavg_propeller write:
    volAverage(propeller) of U = (-0.121837 0.147548 -1.99612)

surfaceFieldValue phi_farField write:
    orientedSum(farField) of phi = 1.1319

surfaceFieldValue phi_top write:
    orientedSum(top) of phi = -0.304626

Time = 21s

smoothSolver:  Solving for Ux, Initial residual = 0.070356, Final residual = 0.00377671, No Iterations 1
smoothSolver:  Solving for Uy, Initial residual = 0.0706142, Final residual = 0.00377596, No Iterations 1
smoothSolver:  Solving for Uz, Initial residual = 0.0828693, Final residual = 0.0048415, No Iterations 1
DICPCG:  Solving for p, Initial residual = 0.0243184, Final residual = 0.00115527, No Iterations 17
time step continuity errors : sum local = 0.0263232, global = 0.0138449, cumulative = 0.179489
smoothSolver:  Solving for omega, Initial residual = 0.0339803, Final residual = 0.00170406, No Iterations 1
smoothSolver:  Solving for k, Initial residual = 0.0807205, Final residual = 0.00421248, No Iterations 1
ExecutionTime = 19.5044 s  ClockTime = 19 s

volFieldValue Uavg_propeller write:
    volAverage(propeller) of U = (-0.272852 0.163879 -2.55844)

surfaceFieldValue phi_farField write:
    orientedSum(farField) of phi = 0.960262

surfaceFieldValue phi_top write:
    orientedSum(top) of phi = -0.295707

Time = 22s

--> FOAM Warning : 
    From function void Foam::Function1s::Table<Type>::checkX(Foam::scalar) const [with Type = Foam::Vector2D<double>; Foam::scalar = double]
    in file lnInclude/Table.C at line 107
    "value (0.852815) overflow"

--> FOAM Warning : 
    From function void Foam::Function1s::Table<Type>::checkX(Foam::scalar) const [with Type = Foam::Vector2D<double>; Foam::scalar = double]
    in file lnInclude/Table.C at line 107
    "value (0.811641) overflow"

smoothSolver:  Solving for Ux, Initial residual = 0.0683094, Final residual = 0.00366778, No Iterations 1
smoothSolver:  Solving for Uy, Initial residual = 0.0685235, Final residual = 0.0036509, No Iterations 1
smoothSolver:  Solving for Uz, Initial residual = 0.0797582, Final residual = 0.00454952, No Iterations 1
DICPCG:  Solving for p, Initial residual = 0.0246382, Final residual = 0.00113818, No Iterations 17
time step continuity errors : sum local = 0.0252644, global = 0.00647892, cumulative = 0.185968
smoothSolver:  Solving for omega, Initial residual = 0.0337142, Final residual = 0.0016706, No Iterations 1
smoothSolver:  Solving for k, Initial residual = 0.0805566, Final residual = 0.00419609, No Iterations 1
ExecutionTime = 20.2103 s  ClockTime = 20 s

volFieldValue Uavg_propeller write:
    volAverage(propeller) of U = (-0.273598 0.123729 -1.98895)

surfaceFieldValue phi_farField write:
    orientedSum(farField) of phi = 0.682455

surfaceFieldValue phi_top write:
    orientedSum(top) of phi = -0.371467

Time = 23s

smoothSolver:  Solving for Ux, Initial residual = 0.0668613, Final residual = 0.00357845, No Iterations 1
smoothSolver:  Solving for Uy, Initial residual = 0.0670639, Final residual = 0.00355411, No Iterations 1
smoothSolver:  Solving for Uz, Initial residual = 0.077406, Final residual = 0.00433789, No Iterations 1
DICPCG:  Solving for p, Initial residual = 0.0286905, Final residual = 0.00134697, No Iterations 17
time step continuity errors : sum local = 0.0255902, global = -0.00129153, cumulative = 0.184677
smoothSolver:  Solving for omega, Initial residual = 0.0332719, Final residual = 0.00163394, No Iterations 1
smoothSolver:  Solving for k, Initial residual = 0.0803967, Final residual = 0.0041827, No Iterations 1
ExecutionTime = 20.9119 s  ClockTime = 21 s

volFieldValue Uavg_propeller write:
    volAverage(propeller) of U = (-0.295166 0.124398 -1.28524)

surfaceFieldValue phi_farField write:
    orientedSum(farField) of phi = 0.364538

surfaceFieldValue phi_top write:
    orientedSum(top) of phi = -0.426531

Time = 24s

smoothSolver:  Solving for Ux, Initial residual = 0.0660479, Final residual = 0.00352274, No Iterations 1
smoothSolver:  Solving for Uy, Initial residual = 0.0661403, Final residual = 0.00349264, No Iterations 1
smoothSolver:  Solving for Uz, Initial residual = 0.0752916, Final residual = 0.00426525, No Iterations 1
DICPCG:  Solving for p, Initial residual = 0.0316224, Final residual = 0.00149233, No Iterations 17
time step continuity errors : sum local = 0.0248048, global = -0.00729635, cumulative = 0.17738
smoothSolver:  Solving for omega, Initial residual = 0.0326457, Final residual = 0.00160109, No Iterations 1
smoothSolver:  Solving for k, Initial residual = 0.0804978, Final residual = 0.00418955, No Iterations 1
ExecutionTime = 21.6629 s  ClockTime = 22 s

volFieldValue Uavg_propeller write:
    volAverage(propeller) of U = (-0.253253 0.0780879 -0.481344)

surfaceFieldValue phi_farField write:
    orientedSum(farField) of phi = 0.153141

surfaceFieldValue phi_top write:
    orientedSum(top) of phi = -0.503366

Time = 25s

--> FOAM Warning : 
    From function void Foam::Function1s::Table<Type>::checkX(Foam::scalar) const [with Type = Foam::Vector2D<double>; Foam::scalar = double]
    in file lnInclude/Table.C at line 107
    "value (-1.74776) underflow"

smoothSolver:  Solving for Ux, Initial residual = 0.0650924, Final residual = 0.00347636, No Iterations 1
smoothSolver:  Solving for Uy, Initial residual = 0.0652533, Final residual = 0.00344615, No Iterations 1
smoothSolver:  Solving for Uz, Initial residual = 0.0740895, Final residual = 0.00427364, No Iterations 1
DICPCG:  Solving for p, Initial residual = 0.0362688, Final residual = 0.00164228, No Iterations 24
time step continuity errors : sum local = 0.0222586, global = -0.00576988, cumulative = 0.17161
smoothSolver:  Solving for omega, Initial residual = 0.0321238, Final residual = 0.00157661, No Iterations 1
smoothSolver:  Solving for k, Initial residual = 0.0809584, Final residual = 0.00421751, No Iterations 1
ExecutionTime = 22.419 s  ClockTime = 22 s

volFieldValue Uavg_propeller write:
    volAverage(propeller) of U = (-0.205052 0.0582805 0.396519)

surfaceFieldValue phi_farField write:
    orientedSum(farField) of phi = 0.267326

surfaceFieldValue phi_top write:
    orientedSum(top) of phi = -0.544281

Time = 26s

--> FOAM Warning : 
    From function void Foam::Function1s::Table<Type>::checkX(Foam::scalar) const [with Type = Foam::Vector2D<double>; Foam::scalar = double]
    in file lnInclude/Table.C at line 107
    "value (-2.25147) underflow"

smoothSolver:  Solving for Ux, Initial residual = 0.0639354, Final residual = 0.00341797, No Iterations 1
smoothSolver:  Solving for Uy, Initial residual = 0.0640906, Final residual = 0.00338678, No Iterations 1
smoothSolver:  Solving for Uz, Initial residual = 0.0739787, Final residual = 0.00428495, No Iterations 1
DICPCG:  Solving for p, Initial residual = 0.042757, Final residual = 0.00212314, No Iterations 22
time step continuity errors : sum local = 0.0229217, global = -0.00633305, cumulative = 0.165277
smoothSolver:  Solving for omega, Initial residual = 0.0316575, Final residual = 0.00156356, No Iterations 1
smoothSolver:  Solving for k, Initial residual = 0.0817033, Final residual = 0.00425326, No Iterations 1
ExecutionTime = 23.149 s  ClockTime = 23 s

volFieldValue Uavg_propeller write:
    volAverage(propeller) of U = (-0.156643 0.0592267 0.949607)

surfaceFieldValue phi_farField write:
    orientedSum(farField) of phi = 0.181856

surfaceFieldValue phi_top write:
    orientedSum(top) of phi = -0.485843

Time = 27s

smoothSolver:  Solving for Ux, Initial residual = 0.0623145, Final residual = 0.00335386, No Iterations 1
smoothSolver:  Solving for Uy, Initial residual = 0.0624307, Final residual = 0.00331516, No Iterations 1
smoothSolver:  Solving for Uz, Initial residual = 0.0726057, Final residual = 0.00416875, No Iterations 1
DICPCG:  Solving for p, Initial residual = 0.0477693, Final residual = 0.00233285, No Iterations 21
time step continuity errors : sum local = 0.022865, global = -0.00692427, cumulative = 0.158353
smoothSolver:  Solving for omega, Initial residual = 0.0315688, Final residual = 0.00156103, No Iterations 1
smoothSolver:  Solving for k, Initial residual = 0.0824244, Final residual = 0.00429177, No Iterations 1
ExecutionTime = 23.9086 s  ClockTime = 24 s

volFieldValue Uavg_propeller write:
    volAverage(propeller) of U = (-0.149308 0.0590767 0.932959)

surfaceFieldValue phi_farField write:
    orientedSum(farField) of phi = 0.0874459

surfaceFieldValue phi_top write:
    orientedSum(top) of phi = -0.419811

Time = 28s

--> FOAM Warning : 
    From function void Foam::Function1s::Table<Type>::checkX(Foam::scalar) const [with Type = Foam::Vector2D<double>; Foam::scalar = double]
    in file lnInclude/Table.C at line 107
    "value (-0.506795) underflow"

smoothSolver:  Solving for Ux, Initial residual = 0.0611954, Final residual = 0.00331642, No Iterations 1
smoothSolver:  Solving for Uy, Initial residual = 0.0612571, Final residual = 0.00327201, No Iterations 1
smoothSolver:  Solving for Uz, Initial residual = 0.0705134, Final residual = 0.00400293, No Iterations 1
DICPCG:  Solving for p, Initial residual = 0.0471555, Final residual = 0.00231453, No Iterations 20
time step continuity errors : sum local = 0.0235523, global = -0.00313536, cumulative = 0.155218
smoothSolver:  Solving for omega, Initial residual = 0.0317732, Final residual = 0.00156569, No Iterations 1
smoothSolver:  Solving for k, Initial residual = 0.083281, Final residual = 0.00433284, No Iterations 1
ExecutionTime = 24.6368 s  ClockTime = 25 s

volFieldValue Uavg_propeller write:
    volAverage(propeller) of U = (-0.145265 0.0814454 0.423693)

surfaceFieldValue phi_farField write:
    orientedSum(farField) of phi = 0.0958057

surfaceFieldValue phi_top write:
    orientedSum(top) of phi = -0.246303

Time = 29s

--> FOAM Warning : 
    From function void Foam::Function1s::Table<Type>::checkX(Foam::scalar) const [with Type = Foam::Vector2D<double>; Foam::scalar = double]
    in file lnInclude/Table.C at line 107
    "value (-2.06976) underflow"

smoothSolver:  Solving for Ux, Initial residual = 0.0605863, Final residual = 0.00330932, No Iterations 1
smoothSolver:  Solving for Uy, Initial residual = 0.0606178, Final residual = 0.00326138, No Iterations 1
smoothSolver:  Solving for Uz, Initial residual = 0.0684404, Final residual = 0.00385843, No Iterations 1
DICPCG:  Solving for p, Initial residual = 0.0521156, Final residual = 0.0026032, No Iterations 16
time step continuity errors : sum local = 0.0237352, global = -0.00190284, cumulative = 0.153315
smoothSolver:  Solving for omega, Initial residual = 0.0321304, Final residual = 0.00157322, No Iterations 1
smoothSolver:  Solving for k, Initial residual = 0.0844575, Final residual = 0.00438879, No Iterations 1
ExecutionTime = 25.4014 s  ClockTime = 25 s

volFieldValue Uavg_propeller write:
    volAverage(propeller) of U = (-0.172047 0.10211 -0.277614)

surfaceFieldValue phi_farField write:
    orientedSum(farField) of phi = -0.00708485

surfaceFieldValue phi_top write:
    orientedSum(top) of phi = -0.0842516

Time = 30s

--> FOAM Warning : 
    From function void Foam::Function1s::Table<Type>::checkX(Foam::scalar) const [with Type = Foam::Vector2D<double>; Foam::scalar = double]
    in file lnInclude/Table.C at line 107
    "value (-3.41926) underflow"

smoothSolver:  Solving for Ux, Initial residual = 0.0599827, Final residual = 0.00329911, No Iterations 1
smoothSolver:  Solving for Uy, Initial residual = 0.0600168, Final residual = 0.0032477, No Iterations 1
smoothSolver:  Solving for Uz, Initial residual = 0.0672068, Final residual = 0.00378683, No Iterations 1
DICPCG:  Solving for p, Initial residual = 0.0512099, Final residual = 0.0023122, No Iterations 23
time step continuity errors : sum local = 0.0204164, global = 0.00648811, cumulative = 0.159803
smoothSolver:  Solving for omega, Initial residual = 0.0324402, Final residual = 0.00158416, No Iterations 1
smoothSolver:  Solving for k, Initial residual = 0.08538, Final residual = 0.00443422, No Iterations 1
ExecutionTime = 26.1775 s  ClockTime = 26 s

volFieldValue Uavg_propeller write:
    volAverage(propeller) of U = (-0.189889 0.121943 -0.861791)

surfaceFieldValue phi_farField write:
    orientedSum(farField) of phi = 0.0968128

surfaceFieldValue phi_top write:
    orientedSum(top) of phi = 0.214617

Time = 31s

--> FOAM Warning : 
    From function void Foam::Function1s::Table<Type>::checkX(Foam::scalar) const [with Type = Foam::Vector2D<double>; Foam::scalar = double]
    in file lnInclude/Table.C at line 107
    "value (-0.628143) underflow"

smoothSolver:  Solving for Ux, Initial residual = 0.058807, Final residual = 0.00326364, No Iterations 1
smoothSolver:  Solving for Uy, Initial residual = 0.0588408, Final residual = 0.00320542, No Iterations 1
smoothSolver:  Solving for Uz, Initial residual = 0.0652781, Final residual = 0.00370575, No Iterations 1
DICPCG:  Solving for p, Initial residual = 0.0351076, Final residual = 0.00164276, No Iterations 22
time step continuity errors : sum local = 0.0199281, global = 0.00249943, cumulative = 0.162302
smoothSolver:  Solving for omega, Initial residual = 0.0328587, Final residual = 0.00159964, No Iterations 1
smoothSolver:  Solving for k, Initial residual = 0.0864903, Final residual = 0.00449834, No Iterations 1
ExecutionTime = 26.9311 s  ClockTime = 27 s

volFieldValue Uavg_propeller write:
    volAverage(propeller) of U = (-0.20709 0.139326 -1.22876)

surfaceFieldValue phi_farField write:
    orientedSum(farField) of phi = -0.176445

surfaceFieldValue phi_top write:
    orientedSum(top) of phi = 0.296417

Time = 32s

smoothSolver:  Solving for Ux, Initial residual = 0.057511, Final residual = 0.00321472, No Iterations 1
smoothSolver:  Solving for Uy, Initial residual = 0.0575461, Final residual = 0.00315094, No Iterations 1
smoothSolver:  Solving for Uz, Initial residual = 0.0636394, Final residual = 0.00362149, No Iterations 1
DICPCG:  Solving for p, Initial residual = 0.0366376, Final residual = 0.00171645, No Iterations 14
time step continuity errors : sum local = 0.0188297, global = 0.0104457, cumulative = 0.172748
smoothSolver:  Solving for omega, Initial residual = 0.0331634, Final residual = 0.00161379, No Iterations 1
smoothSolver:  Solving for k, Initial residual = 0.0867869, Final residual = 0.00453969, No Iterations 1
ExecutionTime = 27.6846 s  ClockTime = 28 s

volFieldValue Uavg_propeller write:
    volAverage(propeller) of U = (-0.209094 0.147684 -1.37336)

surfaceFieldValue phi_farField write:
    orientedSum(farField) of phi = -0.173164

surfaceFieldValue phi_top write:
    orientedSum(top) of phi = 0.674558

Time = 33s

smoothSolver:  Solving for Ux, Initial residual = 0.0563932, Final residual = 0.00316975, No Iterations 1
smoothSolver:  Solving for Uy, Initial residual = 0.0564214, Final residual = 0.00310232, No Iterations 1
smoothSolver:  Solving for Uz, Initial residual = 0.0622558, Final residual = 0.00353216, No Iterations 1
DICPCG:  Solving for p, Initial residual = 0.0392082, Final residual = 0.0018312, No Iterations 14
time step continuity errors : sum local = 0.018119, global = 0.00700324, cumulative = 0.179751
smoothSolver:  Solving for omega, Initial residual = 0.0335232, Final residual = 0.00163307, No Iterations 1
smoothSolver:  Solving for k, Initial residual = 0.0869759, Final residual = 0.00459579, No Iterations 1
ExecutionTime = 28.4048 s  ClockTime = 28 s

volFieldValue Uavg_propeller write:
    volAverage(propeller) of U = (-0.200408 0.15025 -1.34232)

surfaceFieldValue phi_farField write:
    orientedSum(farField) of phi = -0.418001

surfaceFieldValue phi_top write:
    orientedSum(top) of phi = 0.754156

Time = 34s

smoothSolver:  Solving for Ux, Initial residual = 0.0554338, Final residual = 0.00313357, No Iterations 1
smoothSolver:  Solving for Uy, Initial residual = 0.0554876, Final residual = 0.00306219, No Iterations 1
smoothSolver:  Solving for Uz, Initial residual = 0.0612201, Final residual = 0.00346627, No Iterations 1
DICPCG:  Solving for p, Initial residual = 0.0578569, Final residual = 0.00283332, No Iterations 14
time step continuity errors : sum local = 0.0181963, global = 0.00100131, cumulative = 0.180753
smoothSolver:  Solving for omega, Initial residual = 0.0339301, Final residual = 0.0016599, No Iterations 1
smoothSolver:  Solving for k, Initial residual = 0.0870753, Final residual = 0.00464503, No Iterations 1
ExecutionTime = 29.1208 s  ClockTime = 29 s

volFieldValue Uavg_propeller write:
    volAverage(propeller) of U = (-0.19027 0.149096 -1.18987)

surfaceFieldValue phi_farField write:
    orientedSum(farField) of phi = -0.748456

surfaceFieldValue phi_top write:
    orientedSum(top) of phi = 0.796519

Time = 35s

smoothSolver:  Solving for Ux, Initial residual = 0.054593, Final residual = 0.00310192, No Iterations 1
smoothSolver:  Solving for Uy, Initial residual = 0.0546755, Final residual = 0.00302758, No Iterations 1
smoothSolver:  Solving for Uz, Initial residual = 0.0610304, Final residual = 0.00346099, No Iterations 1
DICPCG:  Solving for p, Initial residual = 0.0818889, Final residual = 0.00396522, No Iterations 24
time step continuity errors : sum local = 0.0172118, global = -0.00295096, cumulative = 0.177802
smoothSolver:  Solving for omega, Initial residual = 0.0345922, Final residual = 0.00169502, No Iterations 1
smoothSolver:  Solving for k, Initial residual = 0.0871827, Final residual = 0.00469062, No Iterations 1
ExecutionTime = 29.9416 s  ClockTime = 30 s

volFieldValue Uavg_propeller write:
    volAverage(propeller) of U = (-0.183602 0.149516 -0.98987)

surfaceFieldValue phi_farField write:
    orientedSum(farField) of phi = -0.92524

surfaceFieldValue phi_top write:
    orientedSum(top) of phi = 0.783594

Time = 36s

smoothSolver:  Solving for Ux, Initial residual = 0.0538313, Final residual = 0.00307325, No Iterations 1
smoothSolver:  Solving for Uy, Initial residual = 0.053928, Final residual = 0.00299442, No Iterations 1
smoothSolver:  Solving for Uz, Initial residual = 0.0619451, Final residual = 0.00352391, No Iterations 1
DICPCG:  Solving for p, Initial residual = 0.163447, Final residual = 0.00759726, No Iterations 24
time step continuity errors : sum local = 0.0159549, global = -0.000178309, cumulative = 0.177623
smoothSolver:  Solving for omega, Initial residual = 0.0352683, Final residual = 0.00173159, No Iterations 1
smoothSolver:  Solving for k, Initial residual = 0.0870659, Final residual = 0.00471112, No Iterations 1
ExecutionTime = 30.7106 s  ClockTime = 31 s

volFieldValue Uavg_propeller write:
    volAverage(propeller) of U = (-0.177052 0.148763 -0.834015)

surfaceFieldValue phi_farField write:
    orientedSum(farField) of phi = -0.948464

surfaceFieldValue phi_top write:
    orientedSum(top) of phi = 0.939905

Time = 37s

--> FOAM Warning : 
    From function void Foam::Function1s::Table<Type>::checkX(Foam::scalar) const [with Type = Foam::Vector2D<double>; Foam::scalar = double]
    in file lnInclude/Table.C at line 107
    "value (-0.67975) underflow"

smoothSolver:  Solving for Ux, Initial residual = 0.0530347, Final residual = 0.00304196, No Iterations 1
smoothSolver:  Solving for Uy, Initial residual = 0.0531048, Final residual = 0.00295728, No Iterations 1
smoothSolver:  Solving for Uz, Initial residual = 0.0621792, Final residual = 0.00354049, No Iterations 1
DICPCG:  Solving for p, Initial residual = 0.526934, Final residual = 0.0242743, No Iterations 18
time step continuity errors : sum local = 0.0153996, global = -0.00549316, cumulative = 0.17213
smoothSolver:  Solving for omega, Initial residual = 0.036265, Final residual = 0.00178058, No Iterations 1
smoothSolver:  Solving for k, Initial residual = 0.0873325, Final residual = 0.00474136, No Iterations 1
ExecutionTime = 31.4556 s  ClockTime = 31 s

volFieldValue Uavg_propeller write:
    volAverage(propeller) of U = (-0.170309 0.151604 -0.79405)

surfaceFieldValue phi_farField write:
    orientedSum(farField) of phi = -1.2838

surfaceFieldValue phi_top write:
    orientedSum(top) of phi = 1.02013

Time = 38s

--> FOAM Warning : 
    From function void Foam::Function1s::Table<Type>::checkX(Foam::scalar) const [with Type = Foam::Vector2D<double>; Foam::scalar = double]
    in file lnInclude/Table.C at line 107
    "value (-0.759199) underflow"

smoothSolver:  Solving for Ux, Initial residual = 0.0523109, Final residual = 0.00301391, No Iterations 1
smoothSolver:  Solving for Uy, Initial residual = 0.0523506, Final residual = 0.00292344, No Iterations 1
smoothSolver:  Solving for Uz, Initial residual = 0.0614378, Final residual = 0.00349051, No Iterations 1
DICPCG:  Solving for p, Initial residual = 0.202711, Final residual = 0.0100935, No Iterations 17
time step continuity errors : sum local = 0.016097, global = -0.00477954, cumulative = 0.167351
smoothSolver:  Solving for omega, Initial residual = 0.0374569, Final residual = 0.00183847, No Iterations 1
smoothSolver:  Solving for k, Initial residual = 0.0875423, Final residual = 0.00476801, No Iterations 1
ExecutionTime = 32.2347 s  ClockTime = 32 s

volFieldValue Uavg_propeller write:
    volAverage(propeller) of U = (-0.166557 0.154414 -0.892082)

surfaceFieldValue phi_farField write:
    orientedSum(farField) of phi = -1.36105

surfaceFieldValue phi_top write:
    orientedSum(top) of phi = 1.13163

Time = 39s

--> FOAM Warning : 
    From function void Foam::Function1s::Table<Type>::checkX(Foam::scalar) const [with Type = Foam::Vector2D<double>; Foam::scalar = double]
    in file lnInclude/Table.C at line 107
    "value (-0.574871) underflow"

smoothSolver:  Solving for Ux, Initial residual = 0.0518479, Final residual = 0.00299831, No Iterations 1
smoothSolver:  Solving for Uy, Initial residual = 0.0518406, Final residual = 0.00290307, No Iterations 1
smoothSolver:  Solving for Uz, Initial residual = 0.0603003, Final residual = 0.00341794, No Iterations 1
DICPCG:  Solving for p, Initial residual = 0.142617, Final residual = 0.0065603, No Iterations 17
time step continuity errors : sum local = 0.0143522, global = -0.00195796, cumulative = 0.165393
smoothSolver:  Solving for omega, Initial residual = 0.0387969, Final residual = 0.00190134, No Iterations 1
smoothSolver:  Solving for k, Initial residual = 0.0878854, Final residual = 0.00478787, No Iterations 1
ExecutionTime = 32.9879 s  ClockTime = 33 s

volFieldValue Uavg_propeller write:
    volAverage(propeller) of U = (-0.162427 0.15703 -1.07487)

surfaceFieldValue phi_farField write:
    orientedSum(farField) of phi = -1.35665

surfaceFieldValue phi_top write:
    orientedSum(top) of phi = 1.26266

Time = 40s

smoothSolver:  Solving for Ux, Initial residual = 0.0514768, Final residual = 0.00298583, No Iterations 1
smoothSolver:  Solving for Uy, Initial residual = 0.0514421, Final residual = 0.00288786, No Iterations 1
smoothSolver:  Solving for Uz, Initial residual = 0.0589903, Final residual = 0.00334002, No Iterations 1
DICPCG:  Solving for p, Initial residual = 0.120797, Final residual = 0.00555628, No Iterations 17
time step continuity errors : sum local = 0.0136431, global = 0.000894279, cumulative = 0.166287
smoothSolver:  Solving for omega, Initial residual = 0.0402671, Final residual = 0.00196847, No Iterations 1
smoothSolver:  Solving for k, Initial residual = 0.0887024, Final residual = 0.00482344, No Iterations 1
ExecutionTime = 33.7274 s  ClockTime = 34 s

volFieldValue Uavg_propeller write:
    volAverage(propeller) of U = (-0.155235 0.158814 -1.26365)

surfaceFieldValue phi_farField write:
    orientedSum(farField) of phi = -1.35656

surfaceFieldValue phi_top write:
    orientedSum(top) of phi = 1.39949

Time = 41s

smoothSolver:  Solving for Ux, Initial residual = 0.0510052, Final residual = 0.00296723, No Iterations 1
smoothSolver:  Solving for Uy, Initial residual = 0.0509827, Final residual = 0.00286891, No Iterations 1
smoothSolver:  Solving for Uz, Initial residual = 0.0575263, Final residual = 0.00326576, No Iterations 1
DICPCG:  Solving for p, Initial residual = 0.111902, Final residual = 0.00532439, No Iterations 15
time step continuity errors : sum local = 0.0133301, global = 0.00224456, cumulative = 0.168532
smoothSolver:  Solving for omega, Initial residual = 0.0418046, Final residual = 0.00203597, No Iterations 1
smoothSolver:  Solving for k, Initial residual = 0.0901975, Final residual = 0.0048815, No Iterations 1
ExecutionTime = 34.4948 s  ClockTime = 34 s

volFieldValue Uavg_propeller write:
    volAverage(propeller) of U = (-0.146943 0.159326 -1.40572)

surfaceFieldValue phi_farField write:
    orientedSum(farField) of phi = -1.42514

surfaceFieldValue phi_top write:
    orientedSum(top) of phi = 1.53287

Time = 42s

smoothSolver:  Solving for Ux, Initial residual = 0.0503267, Final residual = 0.00293465, No Iterations 1
smoothSolver:  Solving for Uy, Initial residual = 0.0503614, Final residual = 0.00283858, No Iterations 1
smoothSolver:  Solving for Uz, Initial residual = 0.056027, Final residual = 0.00318317, No Iterations 1
DICPCG:  Solving for p, Initial residual = 0.108885, Final residual = 0.00513044, No Iterations 14
time step continuity errors : sum local = 0.0125263, global = 0.00431789, cumulative = 0.17285
smoothSolver:  Solving for omega, Initial residual = 0.0433516, Final residual = 0.00210057, No Iterations 1
smoothSolver:  Solving for k, Initial residual = 0.0919633, Final residual = 0.00494706, No Iterations 1
ExecutionTime = 35.2188 s  ClockTime = 35 s

volFieldValue Uavg_propeller write:
    volAverage(propeller) of U = (-0.138414 0.158498 -1.47528)

surfaceFieldValue phi_farField write:
    orientedSum(farField) of phi = -1.47144

surfaceFieldValue phi_top write:
    orientedSum(top) of phi = 1.6787

Time = 43s

smoothSolver:  Solving for Ux, Initial residual = 0.0494456, Final residual = 0.00288737, No Iterations 1
smoothSolver:  Solving for Uy, Initial residual = 0.0495593, Final residual = 0.00279573, No Iterations 1
smoothSolver:  Solving for Uz, Initial residual = 0.0544791, Final residual = 0.00308705, No Iterations 1
DICPCG:  Solving for p, Initial residual = 0.10991, Final residual = 0.00542932, No Iterations 15
time step continuity errors : sum local = 0.0126197, global = 0.00568578, cumulative = 0.178535
smoothSolver:  Solving for omega, Initial residual = 0.0448939, Final residual = 0.00216552, No Iterations 1
smoothSolver:  Solving for k, Initial residual = 0.0937665, Final residual = 0.00501153, No Iterations 1
ExecutionTime = 35.9504 s  ClockTime = 36 s

volFieldValue Uavg_propeller write:
    volAverage(propeller) of U = (-0.131567 0.156752 -1.46426)

surfaceFieldValue phi_farField write:
    orientedSum(farField) of phi = -1.53791

surfaceFieldValue phi_top write:
    orientedSum(top) of phi = 1.81083

Time = 44s

smoothSolver:  Solving for Ux, Initial residual = 0.0484391, Final residual = 0.00282981, No Iterations 1
smoothSolver:  Solving for Uy, Initial residual = 0.0486225, Final residual = 0.00274281, No Iterations 1
smoothSolver:  Solving for Uz, Initial residual = 0.0530336, Final residual = 0.00299055, No Iterations 1
DICPCG:  Solving for p, Initial residual = 0.112853, Final residual = 0.00553725, No Iterations 20
time step continuity errors : sum local = 0.0120495, global = 0.00214979, cumulative = 0.180685
smoothSolver:  Solving for omega, Initial residual = 0.0464182, Final residual = 0.00223076, No Iterations 1
smoothSolver:  Solving for k, Initial residual = 0.0953683, Final residual = 0.00506272, No Iterations 1
ExecutionTime = 36.6643 s  ClockTime = 37 s

volFieldValue Uavg_propeller write:
    volAverage(propeller) of U = (-0.12879 0.158029 -1.41578)

surfaceFieldValue phi_farField write:
    orientedSum(farField) of phi = -1.77545

surfaceFieldValue phi_top write:
    orientedSum(top) of phi = 1.87864

Time = 45s

smoothSolver:  Solving for Ux, Initial residual = 0.0473377, Final residual = 0.0027625, No Iterations 1
smoothSolver:  Solving for Uy, Initial residual = 0.0475701, Final residual = 0.00268055, No Iterations 1
smoothSolver:  Solving for Uz, Initial residual = 0.0516513, Final residual = 0.00289886, No Iterations 1
DICPCG:  Solving for p, Initial residual = 0.121453, Final residual = 0.00603651, No Iterations 12
time step continuity errors : sum local = 0.0116318, global = 0.00427203, cumulative = 0.184957
smoothSolver:  Solving for omega, Initial residual = 0.0476865, Final residual = 0.00228796, No Iterations 1
smoothSolver:  Solving for k, Initial residual = 0.0960196, Final residual = 0.00507161, No Iterations 1
ExecutionTime = 37.3748 s  ClockTime = 37 s

volFieldValue Uavg_propeller write:
    volAverage(propeller) of U = (-0.126684 0.16314 -1.36156)

surfaceFieldValue phi_farField write:
    orientedSum(farField) of phi = -1.83351

surfaceFieldValue phi_top write:
    orientedSum(top) of phi = 2.03857

Time = 46s

smoothSolver:  Solving for Ux, Initial residual = 0.0464468, Final residual = 0.00270495, No Iterations 1
smoothSolver:  Solving for Uy, Initial residual = 0.0467072, Final residual = 0.00262835, No Iterations 1
smoothSolver:  Solving for Uz, Initial residual = 0.0507373, Final residual = 0.0028344, No Iterations 1
DICPCG:  Solving for p, Initial residual = 0.119442, Final residual = 0.00521506, No Iterations 12
time step continuity errors : sum local = 0.00975107, global = 0.00222141, cumulative = 0.187179
smoothSolver:  Solving for omega, Initial residual = 0.0488225, Final residual = 0.00233998, No Iterations 1
smoothSolver:  Solving for k, Initial residual = 0.0964445, Final residual = 0.00506226, No Iterations 1
ExecutionTime = 38.0874 s  ClockTime = 38 s

volFieldValue Uavg_propeller write:
    volAverage(propeller) of U = (-0.126553 0.168937 -1.3208)

surfaceFieldValue phi_farField write:
    orientedSum(farField) of phi = -2.02614

surfaceFieldValue phi_top write:
    orientedSum(top) of phi = 2.13277

Time = 47s

smoothSolver:  Solving for Ux, Initial residual = 0.0455569, Final residual = 0.00264398, No Iterations 1
smoothSolver:  Solving for Uy, Initial residual = 0.0458332, Final residual = 0.00257388, No Iterations 1
smoothSolver:  Solving for Uz, Initial residual = 0.0497335, Final residual = 0.00276043, No Iterations 1
DICPCG:  Solving for p, Initial residual = 0.114663, Final residual = 0.00565236, No Iterations 11
time step continuity errors : sum local = 0.0104715, global = 1.87395e-05, cumulative = 0.187197
smoothSolver:  Solving for omega, Initial residual = 0.0496776, Final residual = 0.00237528, No Iterations 1
smoothSolver:  Solving for k, Initial residual = 0.0966339, Final residual = 0.00502113, No Iterations 1
ExecutionTime = 38.8366 s  ClockTime = 39 s

volFieldValue Uavg_propeller write:
    volAverage(propeller) of U = (-0.127702 0.172526 -1.30874)

surfaceFieldValue phi_farField write:
    orientedSum(farField) of phi = -2.22437

surfaceFieldValue phi_top write:
    orientedSum(top) of phi = 2.22527

Time = 48s

smoothSolver:  Solving for Ux, Initial residual = 0.044706, Final residual = 0.00258218, No Iterations 1
smoothSolver:  Solving for Uy, Initial residual = 0.0449975, Final residual = 0.00251846, No Iterations 1
smoothSolver:  Solving for Uz, Initial residual = 0.0486361, Final residual = 0.00267635, No Iterations 1
DICPCG:  Solving for p, Initial residual = 0.108263, Final residual = 0.00504484, No Iterations 12
time step continuity errors : sum local = 0.00935951, global = -0.00143137, cumulative = 0.185766
smoothSolver:  Solving for omega, Initial residual = 0.0502905, Final residual = 0.00239546, No Iterations 1
smoothSolver:  Solving for k, Initial residual = 0.0966026, Final residual = 0.00495963, No Iterations 1
ExecutionTime = 39.5146 s  ClockTime = 39 s

volFieldValue Uavg_propeller write:
    volAverage(propeller) of U = (-0.129266 0.174506 -1.325)

surfaceFieldValue phi_farField write:
    orientedSum(farField) of phi = -2.38697

surfaceFieldValue phi_top write:
    orientedSum(top) of phi = 2.31827

Time = 49s

smoothSolver:  Solving for Ux, Initial residual = 0.0439157, Final residual = 0.00252202, No Iterations 1
smoothSolver:  Solving for Uy, Initial residual = 0.0442397, Final residual = 0.00246482, No Iterations 1
smoothSolver:  Solving for Uz, Initial residual = 0.0474639, Final residual = 0.00258882, No Iterations 1
DICPCG:  Solving for p, Initial residual = 0.102041, Final residual = 0.00491817, No Iterations 14
time step continuity errors : sum local = 0.00913978, global = -0.00168485, cumulative = 0.184081
smoothSolver:  Solving for omega, Initial residual = 0.0506569, Final residual = 0.00240075, No Iterations 1
smoothSolver:  Solving for k, Initial residual = 0.0961886, Final residual = 0.00486601, No Iterations 1
ExecutionTime = 40.1885 s  ClockTime = 40 s

volFieldValue Uavg_propeller write:
    volAverage(propeller) of U = (-0.130294 0.174466 -1.36101)

surfaceFieldValue phi_farField write:
    orientedSum(farField) of phi = -2.49787

surfaceFieldValue phi_top write:
    orientedSum(top) of phi = 2.41699

Time = 50s

smoothSolver:  Solving for Ux, Initial residual = 0.0432145, Final residual = 0.00246604, No Iterations 1
smoothSolver:  Solving for Uy, Initial residual = 0.0435856, Final residual = 0.00241482, No Iterations 1
smoothSolver:  Solving for Uz, Initial residual = 0.04617, Final residual = 0.00249575, No Iterations 1
DICPCG:  Solving for p, Initial residual = 0.0950098, Final residual = 0.00417616, No Iterations 15
time step continuity errors : sum local = 0.00785618, global = -0.00154113, cumulative = 0.18254
smoothSolver:  Solving for omega, Initial residual = 0.0507644, Final residual = 0.00238963, No Iterations 1
smoothSolver:  Solving for k, Initial residual = 0.0957399, Final residual = 0.00475329, No Iterations 1
ExecutionTime = 41.9483 s  ClockTime = 42 s

volFieldValue Uavg_propeller write:
    volAverage(propeller) of U = (-0.1306 0.173236 -1.40259)

surfaceFieldValue phi_farField write:
    orientedSum(farField) of phi = -2.59745

surfaceFieldValue phi_top write:
    orientedSum(top) of phi = 2.52347

Time = 51s

smoothSolver:  Solving for Ux, Initial residual = 0.042587, Final residual = 0.00241474, No Iterations 1
smoothSolver:  Solving for Uy, Initial residual = 0.0430109, Final residual = 0.0023683, No Iterations 1
smoothSolver:  Solving for Uz, Initial residual = 0.0447265, Final residual = 0.00239324, No Iterations 1
DICPCG:  Solving for p, Initial residual = 0.0886656, Final residual = 0.00437125, No Iterations 14
time step continuity errors : sum local = 0.00830596, global = -0.00126613, cumulative = 0.181274
smoothSolver:  Solving for omega, Initial residual = 0.0506327, Final residual = 0.00236307, No Iterations 1
smoothSolver:  Solving for k, Initial residual = 0.095211, Final residual = 0.00461895, No Iterations 1
ExecutionTime = 42.7114 s  ClockTime = 43 s

volFieldValue Uavg_propeller write:
    volAverage(propeller) of U = (-0.130614 0.171555 -1.43693)

surfaceFieldValue phi_farField write:
    orientedSum(farField) of phi = -2.6955

surfaceFieldValue phi_top write:
    orientedSum(top) of phi = 2.63472

Time = 52s

smoothSolver:  Solving for Ux, Initial residual = 0.0418617, Final residual = 0.00235816, No Iterations 1
smoothSolver:  Solving for Uy, Initial residual = 0.0423243, Final residual = 0.00231591, No Iterations 1
smoothSolver:  Solving for Uz, Initial residual = 0.043165, Final residual = 0.002281, No Iterations 1
DICPCG:  Solving for p, Initial residual = 0.0841677, Final residual = 0.00400812, No Iterations 13
time step continuity errors : sum local = 0.00758913, global = -0.000560255, cumulative = 0.180714
smoothSolver:  Solving for omega, Initial residual = 0.0502353, Final residual = 0.00232266, No Iterations 1
smoothSolver:  Solving for k, Initial residual = 0.0946796, Final residual = 0.00447734, No Iterations 1
ExecutionTime = 43.4778 s  ClockTime = 43 s

volFieldValue Uavg_propeller write:
    volAverage(propeller) of U = (-0.131015 0.169896 -1.45663)

surfaceFieldValue phi_farField write:
    orientedSum(farField) of phi = -2.77652

surfaceFieldValue phi_top write:
    orientedSum(top) of phi = 2.74963

Time = 53s

smoothSolver:  Solving for Ux, Initial residual = 0.0409857, Final residual = 0.00229165, No Iterations 1
smoothSolver:  Solving for Uy, Initial residual = 0.0414637, Final residual = 0.00225366, No Iterations 1
smoothSolver:  Solving for Uz, Initial residual = 0.0415113, Final residual = 0.00216088, No Iterations 1
DICPCG:  Solving for p, Initial residual = 0.0808632, Final residual = 0.00363947, No Iterations 12
time step continuity errors : sum local = 0.00678711, global = 0.000937114, cumulative = 0.181651
smoothSolver:  Solving for omega, Initial residual = 0.0495831, Final residual = 0.00226729, No Iterations 1
smoothSolver:  Solving for k, Initial residual = 0.093836, Final residual = 0.00432587, No Iterations 1
ExecutionTime = 44.1672 s  ClockTime = 44 s

volFieldValue Uavg_propeller write:
    volAverage(propeller) of U = (-0.13239 0.168863 -1.45882)

surfaceFieldValue phi_farField write:
    orientedSum(farField) of phi = -2.82765

surfaceFieldValue phi_top write:
    orientedSum(top) of phi = 2.87264

Time = 54s

smoothSolver:  Solving for Ux, Initial residual = 0.0399894, Final residual = 0.00221656, No Iterations 1
smoothSolver:  Solving for Uy, Initial residual = 0.0404619, Final residual = 0.00218327, No Iterations 1
smoothSolver:  Solving for Uz, Initial residual = 0.0397921, Final residual = 0.00203643, No Iterations 1
DICPCG:  Solving for p, Initial residual = 0.0782444, Final residual = 0.00362781, No Iterations 12
time step continuity errors : sum local = 0.00659791, global = 0.00255948, cumulative = 0.18421
smoothSolver:  Solving for omega, Initial residual = 0.0486229, Final residual = 0.00219765, No Iterations 1
smoothSolver:  Solving for k, Initial residual = 0.0927014, Final residual = 0.00416355, No Iterations 1
ExecutionTime = 44.8439 s  ClockTime = 45 s

volFieldValue Uavg_propeller write:
    volAverage(propeller) of U = (-0.134822 0.168542 -1.44961)

surfaceFieldValue phi_farField write:
    orientedSum(farField) of phi = -2.88161

surfaceFieldValue phi_top write:
    orientedSum(top) of phi = 3.00446

Time = 55s

smoothSolver:  Solving for Ux, Initial residual = 0.0388817, Final residual = 0.00213398, No Iterations 1
smoothSolver:  Solving for Uy, Initial residual = 0.0393493, Final residual = 0.00210595, No Iterations 1
smoothSolver:  Solving for Uz, Initial residual = 0.0379756, Final residual = 0.00190616, No Iterations 1
DICPCG:  Solving for p, Initial residual = 0.0769454, Final residual = 0.00363328, No Iterations 18
time step continuity errors : sum local = 0.00633976, global = 0.000893567, cumulative = 0.185104
smoothSolver:  Solving for omega, Initial residual = 0.0473858, Final residual = 0.00211717, No Iterations 1
smoothSolver:  Solving for k, Initial residual = 0.0912529, Final residual = 0.00400079, No Iterations 1
ExecutionTime = 45.6146 s  ClockTime = 46 s

volFieldValue Uavg_propeller write:
    volAverage(propeller) of U = (-0.138387 0.168675 -1.43936)

surfaceFieldValue phi_farField write:
    orientedSum(farField) of phi = -3.07985

surfaceFieldValue phi_top write:
    orientedSum(top) of phi = 3.12274

Time = 56s

smoothSolver:  Solving for Ux, Initial residual = 0.0375604, Final residual = 0.00203963, No Iterations 1
smoothSolver:  Solving for Uy, Initial residual = 0.0380258, Final residual = 0.00201617, No Iterations 1
smoothSolver:  Solving for Uz, Initial residual = 0.0358285, Final residual = 0.00176055, No Iterations 1
DICPCG:  Solving for p, Initial residual = 0.0795598, Final residual = 0.00385573, No Iterations 19
time step continuity errors : sum local = 0.00613167, global = 0.000133264, cumulative = 0.185237
smoothSolver:  Solving for omega, Initial residual = 0.0458587, Final residual = 0.00202427, No Iterations 1
smoothSolver:  Solving for k, Initial residual = 0.0890127, Final residual = 0.00382611, No Iterations 1
ExecutionTime = 46.3875 s  ClockTime = 46 s

volFieldValue Uavg_propeller write:
    volAverage(propeller) of U = (-0.142658 0.168821 -1.42878)

surfaceFieldValue phi_farField write:
    orientedSum(farField) of phi = -3.22221

surfaceFieldValue phi_top write:
    orientedSum(top) of phi = 3.22861

Time = 57s

smoothSolver:  Solving for Ux, Initial residual = 0.0362131, Final residual = 0.00194042, No Iterations 1
smoothSolver:  Solving for Uy, Initial residual = 0.0367128, Final residual = 0.00192346, No Iterations 1
smoothSolver:  Solving for Uz, Initial residual = 0.033605, Final residual = 0.00161559, No Iterations 1
DICPCG:  Solving for p, Initial residual = 0.0840288, Final residual = 0.00387059, No Iterations 19
time step continuity errors : sum local = 0.0055254, global = -0.000104196, cumulative = 0.185133
smoothSolver:  Solving for omega, Initial residual = 0.0440392, Final residual = 0.00191861, No Iterations 1
smoothSolver:  Solving for k, Initial residual = 0.0861616, Final residual = 0.00365646, No Iterations 1
ExecutionTime = 47.1995 s  ClockTime = 47 s

volFieldValue Uavg_propeller write:
    volAverage(propeller) of U = (-0.147248 0.168867 -1.42216)

surfaceFieldValue phi_farField write:
    orientedSum(farField) of phi = -3.34154

surfaceFieldValue phi_top write:
    orientedSum(top) of phi = 3.33654

Time = 58s

smoothSolver:  Solving for Ux, Initial residual = 0.0349368, Final residual = 0.00184201, No Iterations 1
smoothSolver:  Solving for Uy, Initial residual = 0.0354917, Final residual = 0.00183184, No Iterations 1
smoothSolver:  Solving for Uz, Initial residual = 0.0314926, Final residual = 0.00148055, No Iterations 1
DICPCG:  Solving for p, Initial residual = 0.0883037, Final residual = 0.0038547, No Iterations 10
time step continuity errors : sum local = 0.0049552, global = 0.00258162, cumulative = 0.187714
smoothSolver:  Solving for omega, Initial residual = 0.0419472, Final residual = 0.00180352, No Iterations 1
smoothSolver:  Solving for k, Initial residual = 0.0827332, Final residual = 0.00348018, No Iterations 1
ExecutionTime = 47.9614 s  ClockTime = 48 s

volFieldValue Uavg_propeller write:
    volAverage(propeller) of U = (-0.151606 0.168642 -1.42069)

surfaceFieldValue phi_farField write:
    orientedSum(farField) of phi = -3.35327

surfaceFieldValue phi_top write:
    orientedSum(top) of phi = 3.47719

Time = 59s

smoothSolver:  Solving for Ux, Initial residual = 0.0337173, Final residual = 0.00174744, No Iterations 1
smoothSolver:  Solving for Uy, Initial residual = 0.0343239, Final residual = 0.00174257, No Iterations 1
smoothSolver:  Solving for Uz, Initial residual = 0.0297871, Final residual = 0.00137007, No Iterations 1
DICPCG:  Solving for p, Initial residual = 0.0861268, Final residual = 0.00390183, No Iterations 9
time step continuity errors : sum local = 0.00482411, global = 0.00209811, cumulative = 0.189812
smoothSolver:  Solving for omega, Initial residual = 0.0395639, Final residual = 0.00167895, No Iterations 1
smoothSolver:  Solving for k, Initial residual = 0.0789681, Final residual = 0.00330386, No Iterations 1
ExecutionTime = 48.8036 s  ClockTime = 49 s

volFieldValue Uavg_propeller write:
    volAverage(propeller) of U = (-0.155574 0.168099 -1.42346)

surfaceFieldValue phi_farField write:
    orientedSum(farField) of phi = -3.4855

surfaceFieldValue phi_top write:
    orientedSum(top) of phi = 3.58621

Time = 60s

smoothSolver:  Solving for Ux, Initial residual = 0.0324311, Final residual = 0.00164775, No Iterations 1
smoothSolver:  Solving for Uy, Initial residual = 0.0330654, Final residual = 0.00164687, No Iterations 1
smoothSolver:  Solving for Uz, Initial residual = 0.0281684, Final residual = 0.00126548, No Iterations 1
DICPCG:  Solving for p, Initial residual = 0.0836588, Final residual = 0.00417015, No Iterations 10
time step continuity errors : sum local = 0.00494153, global = 0.00178848, cumulative = 0.191601
smoothSolver:  Solving for omega, Initial residual = 0.0370416, Final residual = 0.001553, No Iterations 1
smoothSolver:  Solving for k, Initial residual = 0.0748357, Final residual = 0.00312446, No Iterations 1
ExecutionTime = 49.7153 s  ClockTime = 50 s

volFieldValue Uavg_propeller write:
    volAverage(propeller) of U = (-0.159193 0.167256 -1.42765)

surfaceFieldValue phi_farField write:
    orientedSum(farField) of phi = -3.60967

surfaceFieldValue phi_top write:
    orientedSum(top) of phi = 3.69552

Time = 61s

smoothSolver:  Solving for Ux, Initial residual = 0.0309957, Final residual = 0.0015408, No Iterations 1
smoothSolver:  Solving for Uy, Initial residual = 0.0316474, Final residual = 0.00154487, No Iterations 1
smoothSolver:  Solving for Uz, Initial residual = 0.0266494, Final residual = 0.00116943, No Iterations 1
DICPCG:  Solving for p, Initial residual = 0.0811958, Final residual = 0.00367517, No Iterations 14
time step continuity errors : sum local = 0.00417086, global = 0.000581369, cumulative = 0.192182
smoothSolver:  Solving for omega, Initial residual = 0.0346101, Final residual = 0.0014327, No Iterations 1
smoothSolver:  Solving for k, Initial residual = 0.0705951, Final residual = 0.00295091, No Iterations 1
ExecutionTime = 50.4338 s  ClockTime = 50 s

volFieldValue Uavg_propeller write:
    volAverage(propeller) of U = (-0.16279 0.166013 -1.43043)

surfaceFieldValue phi_farField write:
    orientedSum(farField) of phi = -3.77199

surfaceFieldValue phi_top write:
    orientedSum(top) of phi = 3.7999

Time = 62s

smoothSolver:  Solving for Ux, Initial residual = 0.0293583, Final residual = 0.00142436, No Iterations 1
smoothSolver:  Solving for Uy, Initial residual = 0.029995, Final residual = 0.00143308, No Iterations 1
smoothSolver:  Solving for Uz, Initial residual = 0.0251743, Final residual = 0.00108049, No Iterations 1
DICPCG:  Solving for p, Initial residual = 0.0799739, Final residual = 0.00366053, No Iterations 14
time step continuity errors : sum local = 0.00392471, global = 0.000561032, cumulative = 0.192743
smoothSolver:  Solving for omega, Initial residual = 0.0322327, Final residual = 0.00132305, No Iterations 1
smoothSolver:  Solving for k, Initial residual = 0.0662171, Final residual = 0.00277664, No Iterations 1
ExecutionTime = 51.1199 s  ClockTime = 51 s

volFieldValue Uavg_propeller write:
    volAverage(propeller) of U = (-0.166509 0.164387 -1.43017)

surfaceFieldValue phi_farField write:
    orientedSum(farField) of phi = -3.88857

surfaceFieldValue phi_top write:
    orientedSum(top) of phi = 3.9155

Time = 63s

smoothSolver:  Solving for Ux, Initial residual = 0.0277232, Final residual = 0.00130889, No Iterations 1
smoothSolver:  Solving for Uy, Initial residual = 0.0283091, Final residual = 0.00132154, No Iterations 1
smoothSolver:  Solving for Uz, Initial residual = 0.023801, Final residual = 0.00100113, No Iterations 1
DICPCG:  Solving for p, Initial residual = 0.0794164, Final residual = 0.00393699, No Iterations 14
time step continuity errors : sum local = 0.00397871, global = 0.000766228, cumulative = 0.19351
smoothSolver:  Solving for omega, Initial residual = 0.0300885, Final residual = 0.00122824, No Iterations 1
smoothSolver:  Solving for k, Initial residual = 0.061993, Final residual = 0.00260385, No Iterations 1
ExecutionTime = 51.877 s  ClockTime = 52 s

volFieldValue Uavg_propeller write:
    volAverage(propeller) of U = (-0.170582 0.162266 -1.42667)

surfaceFieldValue phi_farField write:
    orientedSum(farField) of phi = -3.99725

surfaceFieldValue phi_top write:
    orientedSum(top) of phi = 4.03403

Time = 64s

smoothSolver:  Solving for Ux, Initial residual = 0.0262045, Final residual = 0.00120179, No Iterations 1
smoothSolver:  Solving for Uy, Initial residual = 0.0267405, Final residual = 0.00121708, No Iterations 1
smoothSolver:  Solving for Uz, Initial residual = 0.0225538, Final residual = 0.000931802, No Iterations 1
DICPCG:  Solving for p, Initial residual = 0.0788433, Final residual = 0.00384282, No Iterations 18
time step continuity errors : sum local = 0.00364744, global = 0.000471464, cumulative = 0.193981
smoothSolver:  Solving for omega, Initial residual = 0.028145, Final residual = 0.00114777, No Iterations 1
smoothSolver:  Solving for k, Initial residual = 0.0577994, Final residual = 0.00243487, No Iterations 1
ExecutionTime = 52.6795 s  ClockTime = 53 s

volFieldValue Uavg_propeller write:
    volAverage(propeller) of U = (-0.17488 0.159722 -1.42033)

surfaceFieldValue phi_farField write:
    orientedSum(farField) of phi = -4.12995

surfaceFieldValue phi_top write:
    orientedSum(top) of phi = 4.15258

Time = 65s

smoothSolver:  Solving for Ux, Initial residual = 0.0248808, Final residual = 0.00110864, No Iterations 1
smoothSolver:  Solving for Uy, Initial residual = 0.0253917, Final residual = 0.00112651, No Iterations 1
smoothSolver:  Solving for Uz, Initial residual = 0.0214165, Final residual = 0.000871525, No Iterations 1
DICPCG:  Solving for p, Initial residual = 0.0790094, Final residual = 0.00389378, No Iterations 21
time step continuity errors : sum local = 0.0034195, global = 0.000222773, cumulative = 0.194204
smoothSolver:  Solving for omega, Initial residual = 0.0263923, Final residual = 0.00108127, No Iterations 1
smoothSolver:  Solving for k, Initial residual = 0.0538448, Final residual = 0.00227546, No Iterations 1
ExecutionTime = 53.443 s  ClockTime = 53 s

volFieldValue Uavg_propeller write:
    volAverage(propeller) of U = (-0.179236 0.156871 -1.41272)

surfaceFieldValue phi_farField write:
    orientedSum(farField) of phi = -4.25942

surfaceFieldValue phi_top write:
    orientedSum(top) of phi = 4.27012

Time = 66s

smoothSolver:  Solving for Ux, Initial residual = 0.0237637, Final residual = 0.00103029, No Iterations 1
smoothSolver:  Solving for Uy, Initial residual = 0.0242707, Final residual = 0.00105137, No Iterations 1
smoothSolver:  Solving for Uz, Initial residual = 0.0203938, Final residual = 0.000819807, No Iterations 1
DICPCG:  Solving for p, Initial residual = 0.0801779, Final residual = 0.00390138, No Iterations 18
time step continuity errors : sum local = 0.00312918, global = 0.000445164, cumulative = 0.194649
smoothSolver:  Solving for omega, Initial residual = 0.0248986, Final residual = 0.00103038, No Iterations 1
smoothSolver:  Solving for k, Initial residual = 0.0502027, Final residual = 0.00213515, No Iterations 1
ExecutionTime = 54.2417 s  ClockTime = 54 s

volFieldValue Uavg_propeller write:
    volAverage(propeller) of U = (-0.183542 0.153828 -1.40491)

surfaceFieldValue phi_farField write:
    orientedSum(farField) of phi = -4.36677

surfaceFieldValue phi_top write:
    orientedSum(top) of phi = 4.38814

Time = 67s

smoothSolver:  Solving for Ux, Initial residual = 0.0227809, Final residual = 0.000963262, No Iterations 1
smoothSolver:  Solving for Uy, Initial residual = 0.0232934, Final residual = 0.00098683, No Iterations 1
[...]
smoothSolver:  Solving for Uy, Initial residual = 0.00199861, Final residual = 0.000194581, No Iterations 1
smoothSolver:  Solving for Uz, Initial residual = 0.0018766, Final residual = 0.000175589, No Iterations 1
DICPCG:  Solving for p, Initial residual = 0.0130428, Final residual = 0.000608716, No Iterations 19
time step continuity errors : sum local = 2.897e-05, global = -5.72515e-06, cumulative = 0.216386
smoothSolver:  Solving for omega, Initial residual = 0.00052814, Final residual = 3.64747e-05, No Iterations 1
smoothSolver:  Solving for k, Initial residual = 0.00267411, Final residual = 0.000235619, No Iterations 1
ExecutionTime = 743.407 s  ClockTime = 744 s

volFieldValue Uavg_propeller write:
    volAverage(propeller) of U = (0.223603 0.056207 -1.19161)

surfaceFieldValue phi_farField write:
    orientedSum(farField) of phi = 1.49263

surfaceFieldValue phi_top write:
    orientedSum(top) of phi = -1.49291

Time = 983s

smoothSolver:  Solving for Ux, Initial residual = 0.00233049, Final residual = 0.000230606, No Iterations 1
smoothSolver:  Solving for Uy, Initial residual = 0.0019985, Final residual = 0.000194449, No Iterations 1
smoothSolver:  Solving for Uz, Initial residual = 0.00187572, Final residual = 0.000175425, No Iterations 1
DICPCG:  Solving for p, Initial residual = 0.0130746, Final residual = 0.000617391, No Iterations 19
time step continuity errors : sum local = 2.90705e-05, global = -5.82658e-06, cumulative = 0.21638
smoothSolver:  Solving for omega, Initial residual = 0.000523435, Final residual = 3.63111e-05, No Iterations 1
smoothSolver:  Solving for k, Initial residual = 0.0026694, Final residual = 0.000235155, No Iterations 1
ExecutionTime = 744.102 s  ClockTime = 744 s

volFieldValue Uavg_propeller write:
    volAverage(propeller) of U = (0.223185 0.0563583 -1.19167)

surfaceFieldValue phi_farField write:
    orientedSum(farField) of phi = 1.497

surfaceFieldValue phi_top write:
    orientedSum(top) of phi = -1.49728

Time = 984s

smoothSolver:  Solving for Ux, Initial residual = 0.00233279, Final residual = 0.000230753, No Iterations 1
smoothSolver:  Solving for Uy, Initial residual = 0.00199801, Final residual = 0.000194286, No Iterations 1
smoothSolver:  Solving for Uz, Initial residual = 0.00187481, Final residual = 0.000175261, No Iterations 1
DICPCG:  Solving for p, Initial residual = 0.0131488, Final residual = 0.00062833, No Iterations 19
time step continuity errors : sum local = 2.92842e-05, global = -5.98283e-06, cumulative = 0.216374
smoothSolver:  Solving for omega, Initial residual = 0.00052226, Final residual = 3.62128e-05, No Iterations 1
smoothSolver:  Solving for k, Initial residual = 0.00266814, Final residual = 0.000234732, No Iterations 1
ExecutionTime = 744.765 s  ClockTime = 745 s

volFieldValue Uavg_propeller write:
    volAverage(propeller) of U = (0.222756 0.0565053 -1.19172)

surfaceFieldValue phi_farField write:
    orientedSum(farField) of phi = 1.50132

surfaceFieldValue phi_top write:
    orientedSum(top) of phi = -1.50161

Time = 985s

smoothSolver:  Solving for Ux, Initial residual = 0.00233486, Final residual = 0.000230892, No Iterations 1
smoothSolver:  Solving for Uy, Initial residual = 0.0019972, Final residual = 0.000194109, No Iterations 1
smoothSolver:  Solving for Uz, Initial residual = 0.00187395, Final residual = 0.000175088, No Iterations 1
DICPCG:  Solving for p, Initial residual = 0.0132979, Final residual = 0.000641775, No Iterations 19
time step continuity errors : sum local = 2.96054e-05, global = -6.15169e-06, cumulative = 0.216368
smoothSolver:  Solving for omega, Initial residual = 0.000522681, Final residual = 3.60776e-05, No Iterations 1
smoothSolver:  Solving for k, Initial residual = 0.00267025, Final residual = 0.000234759, No Iterations 1
ExecutionTime = 745.436 s  ClockTime = 746 s

volFieldValue Uavg_propeller write:
    volAverage(propeller) of U = (0.222319 0.0566478 -1.19178)

surfaceFieldValue phi_farField write:
    orientedSum(farField) of phi = 1.50561

surfaceFieldValue phi_top write:
    orientedSum(top) of phi = -1.50591

Time = 986s

smoothSolver:  Solving for Ux, Initial residual = 0.00233766, Final residual = 0.000231052, No Iterations 1
smoothSolver:  Solving for Uy, Initial residual = 0.0019973, Final residual = 0.000193995, No Iterations 1
smoothSolver:  Solving for Uz, Initial residual = 0.00187317, Final residual = 0.00017491, No Iterations 1
DICPCG:  Solving for p, Initial residual = 0.0134935, Final residual = 0.000656475, No Iterations 19
time step continuity errors : sum local = 2.99604e-05, global = -6.31093e-06, cumulative = 0.216362
smoothSolver:  Solving for omega, Initial residual = 0.000524817, Final residual = 3.59506e-05, No Iterations 1
smoothSolver:  Solving for k, Initial residual = 0.00266688, Final residual = 0.000234229, No Iterations 1
ExecutionTime = 746.218 s  ClockTime = 746 s

volFieldValue Uavg_propeller write:
    volAverage(propeller) of U = (0.221872 0.0567856 -1.19183)

surfaceFieldValue phi_farField write:
    orientedSum(farField) of phi = 1.50987

surfaceFieldValue phi_top write:
    orientedSum(top) of phi = -1.51017

Time = 987s

smoothSolver:  Solving for Ux, Initial residual = 0.00234032, Final residual = 0.000231212, No Iterations 1
smoothSolver:  Solving for Uy, Initial residual = 0.00199623, Final residual = 0.000193824, No Iterations 1
smoothSolver:  Solving for Uz, Initial residual = 0.00187143, Final residual = 0.000174687, No Iterations 1
DICPCG:  Solving for p, Initial residual = 0.0136018, Final residual = 0.000668993, No Iterations 19
time step continuity errors : sum local = 3.02174e-05, global = -6.41899e-06, cumulative = 0.216355
smoothSolver:  Solving for omega, Initial residual = 0.000519855, Final residual = 3.58503e-05, No Iterations 1
smoothSolver:  Solving for k, Initial residual = 0.0026629, Final residual = 0.00023365, No Iterations 1
ExecutionTime = 746.965 s  ClockTime = 747 s

volFieldValue Uavg_propeller write:
    volAverage(propeller) of U = (0.221416 0.0569186 -1.19189)

surfaceFieldValue phi_farField write:
    orientedSum(farField) of phi = 1.51407

surfaceFieldValue phi_top write:
    orientedSum(top) of phi = -1.51438

Time = 988s

smoothSolver:  Solving for Ux, Initial residual = 0.00234273, Final residual = 0.000231336, No Iterations 1
smoothSolver:  Solving for Uy, Initial residual = 0.00199584, Final residual = 0.000193677, No Iterations 1
smoothSolver:  Solving for Uz, Initial residual = 0.00187017, Final residual = 0.000174468, No Iterations 1
DICPCG:  Solving for p, Initial residual = 0.0136386, Final residual = 0.000615048, No Iterations 20
time step continuity errors : sum local = 2.74751e-05, global = -5.98682e-06, cumulative = 0.216349
smoothSolver:  Solving for omega, Initial residual = 0.00051869, Final residual = 3.57175e-05, No Iterations 1
smoothSolver:  Solving for k, Initial residual = 0.00265897, Final residual = 0.000233046, No Iterations 1
ExecutionTime = 747.689 s  ClockTime = 748 s

volFieldValue Uavg_propeller write:
    volAverage(propeller) of U = (0.22095 0.0570467 -1.19194)

surfaceFieldValue phi_farField write:
    orientedSum(farField) of phi = 1.51825

surfaceFieldValue phi_top write:
    orientedSum(top) of phi = -1.51854

Time = 989s

smoothSolver:  Solving for Ux, Initial residual = 0.00234494, Final residual = 0.000231468, No Iterations 1
smoothSolver:  Solving for Uy, Initial residual = 0.00199538, Final residual = 0.000193561, No Iterations 1
smoothSolver:  Solving for Uz, Initial residual = 0.0018681, Final residual = 0.000174203, No Iterations 1
DICPCG:  Solving for p, Initial residual = 0.0137403, Final residual = 0.000623385, No Iterations 20
time step continuity errors : sum local = 2.74896e-05, global = -5.95304e-06, cumulative = 0.216343
smoothSolver:  Solving for omega, Initial residual = 0.000517287, Final residual = 3.55125e-05, No Iterations 1
smoothSolver:  Solving for k, Initial residual = 0.00265086, Final residual = 0.000232321, No Iterations 1
ExecutionTime = 748.352 s  ClockTime = 748 s

volFieldValue Uavg_propeller write:
    volAverage(propeller) of U = (0.220474 0.0571695 -1.19199)

surfaceFieldValue phi_farField write:
    orientedSum(farField) of phi = 1.52238

surfaceFieldValue phi_top write:
    orientedSum(top) of phi = -1.52267

Time = 990s

smoothSolver:  Solving for Ux, Initial residual = 0.00234705, Final residual = 0.000231563, No Iterations 1
smoothSolver:  Solving for Uy, Initial residual = 0.00199503, Final residual = 0.000193451, No Iterations 1
smoothSolver:  Solving for Uz, Initial residual = 0.00186627, Final residual = 0.000173942, No Iterations 1
DICPCG:  Solving for p, Initial residual = 0.0139255, Final residual = 0.000629926, No Iterations 20
time step continuity errors : sum local = 2.74299e-05, global = -5.93087e-06, cumulative = 0.216337
smoothSolver:  Solving for omega, Initial residual = 0.000517386, Final residual = 3.54076e-05, No Iterations 1
smoothSolver:  Solving for k, Initial residual = 0.00264859, Final residual = 0.000231858, No Iterations 1
ExecutionTime = 749.131 s  ClockTime = 749 s

volFieldValue Uavg_propeller write:
    volAverage(propeller) of U = (0.219989 0.0572864 -1.19204)

surfaceFieldValue phi_farField write:
    orientedSum(farField) of phi = 1.52648

surfaceFieldValue phi_top write:
    orientedSum(top) of phi = -1.52676

Time = 991s

smoothSolver:  Solving for Ux, Initial residual = 0.00234765, Final residual = 0.000231597, No Iterations 1
smoothSolver:  Solving for Uy, Initial residual = 0.00199498, Final residual = 0.000193345, No Iterations 1
smoothSolver:  Solving for Uz, Initial residual = 0.00186457, Final residual = 0.000173671, No Iterations 1
DICPCG:  Solving for p, Initial residual = 0.0140936, Final residual = 0.000700145, No Iterations 19
time step continuity errors : sum local = 3.00992e-05, global = -6.36885e-06, cumulative = 0.216331
smoothSolver:  Solving for omega, Initial residual = 0.00051445, Final residual = 3.52172e-05, No Iterations 1
smoothSolver:  Solving for k, Initial residual = 0.00264302, Final residual = 0.000231081, No Iterations 1
ExecutionTime = 749.918 s  ClockTime = 750 s

volFieldValue Uavg_propeller write:
    volAverage(propeller) of U = (0.219493 0.0573973 -1.19209)

surfaceFieldValue phi_farField write:
    orientedSum(farField) of phi = 1.53051

surfaceFieldValue phi_top write:
    orientedSum(top) of phi = -1.53082

Time = 992s

smoothSolver:  Solving for Ux, Initial residual = 0.00234926, Final residual = 0.000231652, No Iterations 1
smoothSolver:  Solving for Uy, Initial residual = 0.00199425, Final residual = 0.000193201, No Iterations 1
smoothSolver:  Solving for Uz, Initial residual = 0.00186293, Final residual = 0.000173418, No Iterations 1
DICPCG:  Solving for p, Initial residual = 0.0142415, Final residual = 0.000710489, No Iterations 19
time step continuity errors : sum local = 3.0187e-05, global = -6.5263e-06, cumulative = 0.216324
smoothSolver:  Solving for omega, Initial residual = 0.000512412, Final residual = 3.50313e-05, No Iterations 1
smoothSolver:  Solving for k, Initial residual = 0.00263473, Final residual = 0.000230478, No Iterations 1
ExecutionTime = 750.657 s  ClockTime = 751 s

volFieldValue Uavg_propeller write:
    volAverage(propeller) of U = (0.218988 0.0575018 -1.19214)

surfaceFieldValue phi_farField write:
    orientedSum(farField) of phi = 1.5345

surfaceFieldValue phi_top write:
    orientedSum(top) of phi = -1.53482

Time = 993s

smoothSolver:  Solving for Ux, Initial residual = 0.00235083, Final residual = 0.000231712, No Iterations 1
smoothSolver:  Solving for Uy, Initial residual = 0.00199433, Final residual = 0.000193086, No Iterations 1
smoothSolver:  Solving for Uz, Initial residual = 0.00186071, Final residual = 0.000173125, No Iterations 1
DICPCG:  Solving for p, Initial residual = 0.0142961, Final residual = 0.000663729, No Iterations 20
time step continuity errors : sum local = 2.78505e-05, global = -6.31504e-06, cumulative = 0.216318
smoothSolver:  Solving for omega, Initial residual = 0.000508282, Final residual = 3.48523e-05, No Iterations 1
smoothSolver:  Solving for k, Initial residual = 0.00263019, Final residual = 0.00022992, No Iterations 1
ExecutionTime = 751.505 s  ClockTime = 752 s

volFieldValue Uavg_propeller write:
    volAverage(propeller) of U = (0.218473 0.0576 -1.19219)

surfaceFieldValue phi_farField write:
    orientedSum(farField) of phi = 1.53845

surfaceFieldValue phi_top write:
    orientedSum(top) of phi = -1.53875

Time = 994s

smoothSolver:  Solving for Ux, Initial residual = 0.00235217, Final residual = 0.000231758, No Iterations 1
smoothSolver:  Solving for Uy, Initial residual = 0.00199388, Final residual = 0.000192959, No Iterations 1
smoothSolver:  Solving for Uz, Initial residual = 0.00185832, Final residual = 0.00017281, No Iterations 1
DICPCG:  Solving for p, Initial residual = 0.0143983, Final residual = 0.000680819, No Iterations 20
time step continuity errors : sum local = 2.81887e-05, global = -6.42155e-06, cumulative = 0.216312
smoothSolver:  Solving for omega, Initial residual = 0.000509608, Final residual = 3.46704e-05, No Iterations 1
smoothSolver:  Solving for k, Initial residual = 0.00262706, Final residual = 0.000229537, No Iterations 1
ExecutionTime = 752.327 s  ClockTime = 752 s

volFieldValue Uavg_propeller write:
    volAverage(propeller) of U = (0.217946 0.0576918 -1.19224)

surfaceFieldValue phi_farField write:
    orientedSum(farField) of phi = 1.54233

surfaceFieldValue phi_top write:
    orientedSum(top) of phi = -1.54264

Time = 995s

smoothSolver:  Solving for Ux, Initial residual = 0.00235435, Final residual = 0.000231834, No Iterations 1
smoothSolver:  Solving for Uy, Initial residual = 0.00199388, Final residual = 0.000192848, No Iterations 1
smoothSolver:  Solving for Uz, Initial residual = 0.00185572, Final residual = 0.000172474, No Iterations 1
DICPCG:  Solving for p, Initial residual = 0.014508, Final residual = 0.000695385, No Iterations 20
time step continuity errors : sum local = 2.83968e-05, global = -6.45704e-06, cumulative = 0.216305
smoothSolver:  Solving for omega, Initial residual = 0.000507002, Final residual = 3.45724e-05, No Iterations 1
smoothSolver:  Solving for k, Initial residual = 0.00262574, Final residual = 0.000229285, No Iterations 1
ExecutionTime = 753.102 s  ClockTime = 753 s

volFieldValue Uavg_propeller write:
    volAverage(propeller) of U = (0.217409 0.0577768 -1.19228)

surfaceFieldValue phi_farField write:
    orientedSum(farField) of phi = 1.54617

surfaceFieldValue phi_top write:
    orientedSum(top) of phi = -1.54648

Time = 996s

smoothSolver:  Solving for Ux, Initial residual = 0.00235536, Final residual = 0.000231872, No Iterations 1
smoothSolver:  Solving for Uy, Initial residual = 0.00199418, Final residual = 0.000192751, No Iterations 1
smoothSolver:  Solving for Uz, Initial residual = 0.00185313, Final residual = 0.000172131, No Iterations 1
DICPCG:  Solving for p, Initial residual = 0.0147233, Final residual = 0.00070812, No Iterations 20
time step continuity errors : sum local = 2.8477e-05, global = -6.4402e-06, cumulative = 0.216299
smoothSolver:  Solving for omega, Initial residual = 0.000503057, Final residual = 3.43981e-05, No Iterations 1
smoothSolver:  Solving for k, Initial residual = 0.00262118, Final residual = 0.000228659, No Iterations 1
ExecutionTime = 753.862 s  ClockTime = 754 s

volFieldValue Uavg_propeller write:
    volAverage(propeller) of U = (0.216861 0.057855 -1.19233)

surfaceFieldValue phi_farField write:
    orientedSum(farField) of phi = 1.54995

surfaceFieldValue phi_top write:
    orientedSum(top) of phi = -1.55026

Time = 997s

smoothSolver:  Solving for Ux, Initial residual = 0.00235746, Final residual = 0.000231943, No Iterations 1
smoothSolver:  Solving for Uy, Initial residual = 0.00199397, Final residual = 0.000192617, No Iterations 1
smoothSolver:  Solving for Uz, Initial residual = 0.00185015, Final residual = 0.000171772, No Iterations 1
DICPCG:  Solving for p, Initial residual = 0.0149115, Final residual = 0.00072071, No Iterations 20
time step continuity errors : sum local = 2.85341e-05, global = -6.39722e-06, cumulative = 0.216292
smoothSolver:  Solving for omega, Initial residual = 0.000503364, Final residual = 3.42851e-05, No Iterations 1
smoothSolver:  Solving for k, Initial residual = 0.00261845, Final residual = 0.000228242, No Iterations 1
ExecutionTime = 754.569 s  ClockTime = 755 s

volFieldValue Uavg_propeller write:
    volAverage(propeller) of U = (0.216302 0.057926 -1.19237)

surfaceFieldValue phi_farField write:
    orientedSum(farField) of phi = 1.55369

surfaceFieldValue phi_top write:
    orientedSum(top) of phi = -1.55399

Time = 998s

smoothSolver:  Solving for Ux, Initial residual = 0.00235867, Final residual = 0.000231984, No Iterations 1
smoothSolver:  Solving for Uy, Initial residual = 0.00199364, Final residual = 0.000192501, No Iterations 1
smoothSolver:  Solving for Uz, Initial residual = 0.00184728, Final residual = 0.000171411, No Iterations 1
DICPCG:  Solving for p, Initial residual = 0.0150806, Final residual = 0.00073347, No Iterations 20
time step continuity errors : sum local = 2.85961e-05, global = -6.36008e-06, cumulative = 0.216286
smoothSolver:  Solving for omega, Initial residual = 0.000504508, Final residual = 3.41872e-05, No Iterations 1
smoothSolver:  Solving for k, Initial residual = 0.00261992, Final residual = 0.000228051, No Iterations 1
ExecutionTime = 755.357 s  ClockTime = 755 s

volFieldValue Uavg_propeller write:
    volAverage(propeller) of U = (0.215731 0.0579897 -1.19241)

surfaceFieldValue phi_farField write:
    orientedSum(farField) of phi = 1.55738

surfaceFieldValue phi_top write:
    orientedSum(top) of phi = -1.55769

Time = 999s

smoothSolver:  Solving for Ux, Initial residual = 0.00235991, Final residual = 0.000232017, No Iterations 1
smoothSolver:  Solving for Uy, Initial residual = 0.00199409, Final residual = 0.000192429, No Iterations 1
smoothSolver:  Solving for Uz, Initial residual = 0.00184412, Final residual = 0.000171019, No Iterations 1
DICPCG:  Solving for p, Initial residual = 0.0152332, Final residual = 0.000745476, No Iterations 20
time step continuity errors : sum local = 2.86207e-05, global = -6.36592e-06, cumulative = 0.21628
smoothSolver:  Solving for omega, Initial residual = 0.000501132, Final residual = 3.40975e-05, No Iterations 1
smoothSolver:  Solving for k, Initial residual = 0.00261593, Final residual = 0.000227632, No Iterations 1
ExecutionTime = 756.126 s  ClockTime = 756 s

volFieldValue Uavg_propeller write:
    volAverage(propeller) of U = (0.215148 0.0580458 -1.19245)

surfaceFieldValue phi_farField write:
    orientedSum(farField) of phi = 1.56101

surfaceFieldValue phi_top write:
    orientedSum(top) of phi = -1.56132

Time = 1000s

smoothSolver:  Solving for Ux, Initial residual = 0.00236082, Final residual = 0.000232005, No Iterations 1
smoothSolver:  Solving for Uy, Initial residual = 0.00199387, Final residual = 0.000192312, No Iterations 1
smoothSolver:  Solving for Uz, Initial residual = 0.00184058, Final residual = 0.000170607, No Iterations 1
DICPCG:  Solving for p, Initial residual = 0.0153643, Final residual = 0.000757618, No Iterations 20
time step continuity errors : sum local = 2.86266e-05, global = -6.40801e-06, cumulative = 0.216273
smoothSolver:  Solving for omega, Initial residual = 0.000500826, Final residual = 3.3971e-05, No Iterations 1
smoothSolver:  Solving for k, Initial residual = 0.0026168, Final residual = 0.000227443, No Iterations 1
ExecutionTime = 758.061 s  ClockTime = 758 s

volFieldValue Uavg_propeller write:
    volAverage(propeller) of U = (0.214553 0.058094 -1.19249)

surfaceFieldValue phi_farField write:
    orientedSum(farField) of phi = 1.56459

surfaceFieldValue phi_top write:
    orientedSum(top) of phi = -1.5649

End

