/*---------------------------------------------------------------------------*\
  =========                 |
  \\      /  F ield         | OpenFOAM: The Open Source CFD Toolbox
   \\    /   O peration     | Website:  https://openfoam.org
    \\  /    A nd           | Version:  13
     \\/     M anipulation  |
\*---------------------------------------------------------------------------*/
Build  : 13-cde978a97c93
Exec   : foamRun
Date   : Mar 05 2026
Time   : 21:35:34
Host   : "JOO-DESKTOP"
PID    : 168374
I/O    : uncollated
Case   : /home/joo/OpenFOAM/joo-13/run/trackB_propellerIGE_v13/cases/sweep_sensitivity_lowJtilt/hR0p5
nProcs : 1
sigFpe : Enabling floating point exception trapping (FOAM_SIGFPE).
fileModificationChecking : Monitoring run-time modified files using timeStampMaster (fileModificationSkew 10)
allowSystemOperations : Allowing user-supplied system call operations

// * * * * * * * * * * * * * * * * * * * * * * * * * * * * * * * * * * * * * //
Create time

Create mesh for time = 0

Selecting solver incompressibleFluid
Selecting viscosity model constant
Selecting turbulence model type RAS
    Selecting RAS turbulence model kOmegaSST
No MRF models present

Selecting patchDistMethod meshWave
Creating fvModels from "constant/fvModels"

Selecting finite volume model type propellerDisk
    Name: diskSource

SIMPLE: Convergence criteria found
        p: tolerance 0.0001
        U: tolerance 1e-05
        k: tolerance 1e-05
        omega: tolerance 1e-05


SIMPLE: Operating solver in steady-state mode with 1 outer corrector
SIMPLE: Operating solver in SIMPLE mode



Starting time loop

Reading set description:
    line

volFieldValue Uavg_propeller read:
    number of cells = 104
    volume = 0.0126953
    operation = volAverage

surfaceFieldValue phi_farField read:
    number of faces = 24576
    area = 48
    operation = orientedSum

surfaceFieldValue phi_top read:
    number of faces = 4096
    area = 16
    operation = orientedSum

volFieldValue Uavg_propeller write:
    volAverage(propeller) of U = (0 0 -0.01)

surfaceFieldValue phi_farField write:
    orientedSum(farField) of phi = 0

surfaceFieldValue phi_top write:
    orientedSum(top) of phi = 0

Time = 1s

--> FOAM Warning : 
    From function void Foam::Function1s::Table<Type>::checkX(Foam::scalar) const [with Type = Foam::Vector2D<double>; Foam::scalar = double]
    in file lnInclude/Table.C at line 107
    "value (-105.028) underflow"

smoothSolver:  Solving for Ux, Initial residual = 1, Final residual = 0.0274236, No Iterations 1
smoothSolver:  Solving for Uy, Initial residual = 1, Final residual = 0.0274236, No Iterations 1
smoothSolver:  Solving for Uz, Initial residual = 1, Final residual = 0.0279093, No Iterations 1
DICPCG:  Solving for p, Initial residual = 1, Final residual = 0.0493347, No Iterations 11
time step continuity errors : sum local = 0.0426607, global = -0.00222526, cumulative = -0.00222526
smoothSolver:  Solving for omega, Initial residual = 0.287565, Final residual = 0.0190231, No Iterations 1
smoothSolver:  Solving for k, Initial residual = 1, Final residual = 0.0297285, No Iterations 1
ExecutionTime = 3.53674 s  ClockTime = 4 s

volFieldValue Uavg_propeller write:
    volAverage(propeller) of U = (-0.00128861 -0.0010177 -88.6748)

surfaceFieldValue phi_farField write:
    orientedSum(farField) of phi = 0.0531874

surfaceFieldValue phi_top write:
    orientedSum(top) of phi = -0.16

Time = 2s

--> FOAM Warning : 
    From function void Foam::Function1s::Table<Type>::checkX(Foam::scalar) const [with Type = Foam::Vector2D<double>; Foam::scalar = double]
    in file lnInclude/Table.C at line 107
    "value (29.5583) overflow"

--> FOAM Warning : 
    From function void Foam::Function1s::Table<Type>::checkX(Foam::scalar) const [with Type = Foam::Vector2D<double>; Foam::scalar = double]
    in file lnInclude/Table.C at line 107
    "value (29.5571) overflow"

smoothSolver:  Solving for Ux, Initial residual = 0.245803, Final residual = 0.0145916, No Iterations 1
smoothSolver:  Solving for Uy, Initial residual = 0.245846, Final residual = 0.0139752, No Iterations 1
smoothSolver:  Solving for Uz, Initial residual = 0.25636, Final residual = 0.0154027, No Iterations 1
DICPCG:  Solving for p, Initial residual = 0.988891, Final residual = 0.0491243, No Iterations 28
time step continuity errors : sum local = 0.0374527, global = 0.0058448, cumulative = 0.00361953
smoothSolver:  Solving for omega, Initial residual = 0.0972241, Final residual = 0.00464642, No Iterations 1
smoothSolver:  Solving for k, Initial residual = 0.0771589, Final residual = 0.00354308, No Iterations 1
ExecutionTime = 4.30138 s  ClockTime = 4 s

volFieldValue Uavg_propeller write:
    volAverage(propeller) of U = (0.0338009 -0.00485149 -60.3206)

surfaceFieldValue phi_farField write:
    orientedSum(farField) of phi = 0.443884

surfaceFieldValue phi_top write:
    orientedSum(top) of phi = -0.163334

Time = 3s

--> FOAM Warning : 
    From function void Foam::Function1s::Table<Type>::checkX(Foam::scalar) const [with Type = Foam::Vector2D<double>; Foam::scalar = double]
    in file lnInclude/Table.C at line 107
    "value (20.1069) overflow"

--> FOAM Warning : 
    From function void Foam::Function1s::Table<Type>::checkX(Foam::scalar) const [with Type = Foam::Vector2D<double>; Foam::scalar = double]
    in file lnInclude/Table.C at line 107
    "value (20.1051) overflow"

smoothSolver:  Solving for Ux, Initial residual = 0.221764, Final residual = 0.0128841, No Iterations 1
smoothSolver:  Solving for Uy, Initial residual = 0.221453, Final residual = 0.0115853, No Iterations 1
smoothSolver:  Solving for Uz, Initial residual = 0.238958, Final residual = 0.0120219, No Iterations 1
DICPCG:  Solving for p, Initial residual = 0.0142691, Final residual = 0.000674953, No Iterations 14
time step continuity errors : sum local = 0.0281625, global = -0.000333512, cumulative = 0.00328602
smoothSolver:  Solving for omega, Initial residual = 0.0848315, Final residual = 0.00481877, No Iterations 1
smoothSolver:  Solving for k, Initial residual = 0.073482, Final residual = 0.00351593, No Iterations 1
ExecutionTime = 4.94855 s  ClockTime = 5 s

volFieldValue Uavg_propeller write:
    volAverage(propeller) of U = (0.0340284 -0.0253115 -32.695)

surfaceFieldValue phi_farField write:
    orientedSum(farField) of phi = 0.169999

surfaceFieldValue phi_top write:
    orientedSum(top) of phi = -0.186008

Time = 4s

--> FOAM Warning : 
    From function void Foam::Function1s::Table<Type>::checkX(Foam::scalar) const [with Type = Foam::Vector2D<double>; Foam::scalar = double]
    in file lnInclude/Table.C at line 107
    "value (10.8983) overflow"

--> FOAM Warning : 
    From function void Foam::Function1s::Table<Type>::checkX(Foam::scalar) const [with Type = Foam::Vector2D<double>; Foam::scalar = double]
    in file lnInclude/Table.C at line 107
    "value (10.8951) overflow"

smoothSolver:  Solving for Ux, Initial residual = 0.21282, Final residual = 0.012395, No Iterations 1
smoothSolver:  Solving for Uy, Initial residual = 0.212135, Final residual = 0.0124183, No Iterations 1
smoothSolver:  Solving for Uz, Initial residual = 0.29777, Final residual = 0.0199463, No Iterations 1
DICPCG:  Solving for p, Initial residual = 0.0082817, Final residual = 0.000379968, No Iterations 22
time step continuity errors : sum local = 0.0244748, global = 0.0112597, cumulative = 0.0145458
smoothSolver:  Solving for omega, Initial residual = 0.0682673, Final residual = 0.00411318, No Iterations 1
smoothSolver:  Solving for k, Initial residual = 0.0626431, Final residual = 0.00322605, No Iterations 1
ExecutionTime = 5.63055 s  ClockTime = 6 s

volFieldValue Uavg_propeller write:
    volAverage(propeller) of U = (0.0339184 -0.0367824 -11.4266)

surfaceFieldValue phi_farField write:
    orientedSum(farField) of phi = 0.765986

surfaceFieldValue phi_top write:
    orientedSum(top) of phi = -0.225518

Time = 5s

--> FOAM Warning : 
    From function void Foam::Function1s::Table<Type>::checkX(Foam::scalar) const [with Type = Foam::Vector2D<double>; Foam::scalar = double]
    in file lnInclude/Table.C at line 107
    "value (3.80887) overflow"

--> FOAM Warning : 
    From function void Foam::Function1s::Table<Type>::checkX(Foam::scalar) const [with Type = Foam::Vector2D<double>; Foam::scalar = double]
    in file lnInclude/Table.C at line 107
    "value (3.79965) overflow"

smoothSolver:  Solving for Ux, Initial residual = 0.159873, Final residual = 0.00928259, No Iterations 1
smoothSolver:  Solving for Uy, Initial residual = 0.159361, Final residual = 0.00949398, No Iterations 1
smoothSolver:  Solving for Uz, Initial residual = 0.427467, Final residual = 0.0294855, No Iterations 1
DICPCG:  Solving for p, Initial residual = 0.0168653, Final residual = 0.000769921, No Iterations 27
time step continuity errors : sum local = 0.0299982, global = 0.0145435, cumulative = 0.0290892
smoothSolver:  Solving for omega, Initial residual = 0.061926, Final residual = 0.00358804, No Iterations 1
smoothSolver:  Solving for k, Initial residual = 0.057504, Final residual = 0.0030398, No Iterations 1
ExecutionTime = 6.409 s  ClockTime = 6 s

volFieldValue Uavg_propeller write:
    volAverage(propeller) of U = (0.0689506 -0.0481194 0.429676)

surfaceFieldValue phi_farField write:
    orientedSum(farField) of phi = 0.976278

surfaceFieldValue phi_top write:
    orientedSum(top) of phi = -0.278193

Time = 6s

--> FOAM Warning : 
    From function void Foam::Function1s::Table<Type>::checkX(Foam::scalar) const [with Type = Foam::Vector2D<double>; Foam::scalar = double]
    in file lnInclude/Table.C at line 107
    "value (-2.03269) underflow"

smoothSolver:  Solving for Ux, Initial residual = 0.10574, Final residual = 0.00630826, No Iterations 1
smoothSolver:  Solving for Uy, Initial residual = 0.10557, Final residual = 0.00633672, No Iterations 1
smoothSolver:  Solving for Uz, Initial residual = 0.330902, Final residual = 0.022316, No Iterations 1
DICPCG:  Solving for p, Initial residual = 0.299446, Final residual = 0.0140471, No Iterations 26
time step continuity errors : sum local = 0.0386465, global = 0.0175703, cumulative = 0.0466595
smoothSolver:  Solving for omega, Initial residual = 0.0514286, Final residual = 0.00289283, No Iterations 1
smoothSolver:  Solving for k, Initial residual = 0.0540945, Final residual = 0.00287822, No Iterations 1
ExecutionTime = 7.15653 s  ClockTime = 7 s

volFieldValue Uavg_propeller write:
    volAverage(propeller) of U = (0.121375 -0.0307563 2.26159)

surfaceFieldValue phi_farField write:
    orientedSum(farField) of phi = 1.15312

surfaceFieldValue phi_top write:
    orientedSum(top) of phi = -0.309743

Time = 7s

smoothSolver:  Solving for Ux, Initial residual = 0.0840863, Final residual = 0.00515587, No Iterations 1
smoothSolver:  Solving for Uy, Initial residual = 0.0841209, Final residual = 0.00517698, No Iterations 1
smoothSolver:  Solving for Uz, Initial residual = 0.176135, Final residual = 0.0103046, No Iterations 1
DICPCG:  Solving for p, Initial residual = 0.0220868, Final residual = 0.00104897, No Iterations 22
time step continuity errors : sum local = 0.0393078, global = 0.0217005, cumulative = 0.0683599
smoothSolver:  Solving for omega, Initial residual = 0.0429491, Final residual = 0.00241361, No Iterations 1
smoothSolver:  Solving for k, Initial residual = 0.0528887, Final residual = 0.00282774, No Iterations 1
ExecutionTime = 7.86026 s  ClockTime = 9 s

volFieldValue Uavg_propeller write:
    volAverage(propeller) of U = (0.168166 -0.0192982 -1.84289)

surfaceFieldValue phi_farField write:
    orientedSum(farField) of phi = 1.37711

surfaceFieldValue phi_top write:
    orientedSum(top) of phi = -0.335482

Time = 8s

smoothSolver:  Solving for Ux, Initial residual = 0.0981277, Final residual = 0.00556067, No Iterations 1
smoothSolver:  Solving for Uy, Initial residual = 0.0983591, Final residual = 0.00585575, No Iterations 1
smoothSolver:  Solving for Uz, Initial residual = 0.163168, Final residual = 0.00927817, No Iterations 1
DICPCG:  Solving for p, Initial residual = 0.0114796, Final residual = 0.000568338, No Iterations 20
time step continuity errors : sum local = 0.0347304, global = 0.020563, cumulative = 0.088923
smoothSolver:  Solving for omega, Initial residual = 0.03964, Final residual = 0.00218084, No Iterations 1
smoothSolver:  Solving for k, Initial residual = 0.0559966, Final residual = 0.00299223, No Iterations 1
ExecutionTime = 8.55805 s  ClockTime = 9 s

volFieldValue Uavg_propeller write:
    volAverage(propeller) of U = (0.186341 -0.00708114 -6.23735)

surfaceFieldValue phi_farField write:
    orientedSum(farField) of phi = 1.35546

surfaceFieldValue phi_top write:
    orientedSum(top) of phi = -0.368432

Time = 9s

--> FOAM Warning : 
    From function void Foam::Function1s::Table<Type>::checkX(Foam::scalar) const [with Type = Foam::Vector2D<double>; Foam::scalar = double]
    in file lnInclude/Table.C at line 107
    "value (2.07912) overflow"

--> FOAM Warning : 
    From function void Foam::Function1s::Table<Type>::checkX(Foam::scalar) const [with Type = Foam::Vector2D<double>; Foam::scalar = double]
    in file lnInclude/Table.C at line 107
    "value (2.06223) overflow"

smoothSolver:  Solving for Ux, Initial residual = 0.108, Final residual = 0.00577028, No Iterations 1
smoothSolver:  Solving for Uy, Initial residual = 0.108411, Final residual = 0.0061938, No Iterations 1
smoothSolver:  Solving for Uz, Initial residual = 0.231261, Final residual = 0.0154298, No Iterations 1
DICPCG:  Solving for p, Initial residual = 0.00845023, Final residual = 0.000421143, No Iterations 22
time step continuity errors : sum local = 0.0269383, global = 0.0116943, cumulative = 0.100617
smoothSolver:  Solving for omega, Initial residual = 0.0373507, Final residual = 0.00210357, No Iterations 1
smoothSolver:  Solving for k, Initial residual = 0.060115, Final residual = 0.00321115, No Iterations 1
ExecutionTime = 9.28735 s  ClockTime = 10 s

volFieldValue Uavg_propeller write:
    volAverage(propeller) of U = (0.151638 0.038702 -8.01265)

surfaceFieldValue phi_farField write:
    orientedSum(farField) of phi = 0.988042

surfaceFieldValue phi_top write:
    orientedSum(top) of phi = -0.426716

Time = 10s

--> FOAM Warning : 
    From function void Foam::Function1s::Table<Type>::checkX(Foam::scalar) const [with Type = Foam::Vector2D<double>; Foam::scalar = double]
    in file lnInclude/Table.C at line 107
    "value (2.67088) overflow"

--> FOAM Warning : 
    From function void Foam::Function1s::Table<Type>::checkX(Foam::scalar) const [with Type = Foam::Vector2D<double>; Foam::scalar = double]
    in file lnInclude/Table.C at line 107
    "value (2.65774) overflow"

smoothSolver:  Solving for Ux, Initial residual = 0.10744, Final residual = 0.00552751, No Iterations 1
smoothSolver:  Solving for Uy, Initial residual = 0.108014, Final residual = 0.0059206, No Iterations 1
smoothSolver:  Solving for Uz, Initial residual = 0.226314, Final residual = 0.0147285, No Iterations 1
DICPCG:  Solving for p, Initial residual = 0.0106643, Final residual = 0.000505072, No Iterations 20
time step continuity errors : sum local = 0.0271466, global = 0.0124659, cumulative = 0.113083
smoothSolver:  Solving for omega, Initial residual = 0.0371658, Final residual = 0.00207887, No Iterations 1
smoothSolver:  Solving for k, Initial residual = 0.0631848, Final residual = 0.00338168, No Iterations 1
ExecutionTime = 10.0235 s  ClockTime = 11 s

volFieldValue Uavg_propeller write:
    volAverage(propeller) of U = (0.135424 -0.119243 -7.81958)

surfaceFieldValue phi_farField write:
    orientedSum(farField) of phi = 1.07158

surfaceFieldValue phi_top write:
    orientedSum(top) of phi = -0.473217

Time = 11s

--> FOAM Warning : 
    From function void Foam::Function1s::Table<Type>::checkX(Foam::scalar) const [with Type = Foam::Vector2D<double>; Foam::scalar = double]
    in file lnInclude/Table.C at line 107
    "value (2.60653) overflow"

--> FOAM Warning : 
    From function void Foam::Function1s::Table<Type>::checkX(Foam::scalar) const [with Type = Foam::Vector2D<double>; Foam::scalar = double]
    in file lnInclude/Table.C at line 107
    "value (2.59306) overflow"

smoothSolver:  Solving for Ux, Initial residual = 0.0992761, Final residual = 0.00500765, No Iterations 1
smoothSolver:  Solving for Uy, Initial residual = 0.0999871, Final residual = 0.00526124, No Iterations 1
smoothSolver:  Solving for Uz, Initial residual = 0.169935, Final residual = 0.010219, No Iterations 1
DICPCG:  Solving for p, Initial residual = 0.017471, Final residual = 0.000809151, No Iterations 19
time step continuity errors : sum local = 0.0316027, global = 0.00790915, cumulative = 0.120992
smoothSolver:  Solving for omega, Initial residual = 0.0384287, Final residual = 0.00208829, No Iterations 1
smoothSolver:  Solving for k, Initial residual = 0.066291, Final residual = 0.00354651, No Iterations 1
ExecutionTime = 10.7071 s  ClockTime = 12 s

volFieldValue Uavg_propeller write:
    volAverage(propeller) of U = (0.0951892 -0.0741264 -5.75215)

surfaceFieldValue phi_farField write:
    orientedSum(farField) of phi = 0.909645

surfaceFieldValue phi_top write:
    orientedSum(top) of phi = -0.530006

Time = 12s

--> FOAM Warning : 
    From function void Foam::Function1s::Table<Type>::checkX(Foam::scalar) const [with Type = Foam::Vector2D<double>; Foam::scalar = double]
    in file lnInclude/Table.C at line 107
    "value (1.91738) overflow"

--> FOAM Warning : 
    From function void Foam::Function1s::Table<Type>::checkX(Foam::scalar) const [with Type = Foam::Vector2D<double>; Foam::scalar = double]
    in file lnInclude/Table.C at line 107
    "value (1.89907) overflow"

smoothSolver:  Solving for Ux, Initial residual = 0.0927324, Final residual = 0.00464206, No Iterations 1
smoothSolver:  Solving for Uy, Initial residual = 0.0933977, Final residual = 0.00479604, No Iterations 1
smoothSolver:  Solving for Uz, Initial residual = 0.127574, Final residual = 0.00668316, No Iterations 1
DICPCG:  Solving for p, Initial residual = 0.0308029, Final residual = 0.00147029, No Iterations 17
time step continuity errors : sum local = 0.0347314, global = 0.00583179, cumulative = 0.126824
smoothSolver:  Solving for omega, Initial residual = 0.0387024, Final residual = 0.00206449, No Iterations 1
smoothSolver:  Solving for k, Initial residual = 0.068731, Final residual = 0.00367956, No Iterations 1
ExecutionTime = 11.3974 s  ClockTime = 12 s

volFieldValue Uavg_propeller write:
    volAverage(propeller) of U = (0.0226809 0.0718091 -1.27159)

surfaceFieldValue phi_farField write:
    orientedSum(farField) of phi = 0.860527

surfaceFieldValue phi_top write:
    orientedSum(top) of phi = -0.580602

Time = 13s

smoothSolver:  Solving for Ux, Initial residual = 0.0880843, Final residual = 0.00450232, No Iterations 1
smoothSolver:  Solving for Uy, Initial residual = 0.0884217, Final residual = 0.00449807, No Iterations 1
smoothSolver:  Solving for Uz, Initial residual = 0.122513, Final residual = 0.00671191, No Iterations 1
DICPCG:  Solving for p, Initial residual = 0.0485201, Final residual = 0.00229671, No Iterations 14
time step continuity errors : sum local = 0.0330279, global = 0.00478453, cumulative = 0.131609
smoothSolver:  Solving for omega, Initial residual = 0.0379783, Final residual = 0.00196626, No Iterations 1
smoothSolver:  Solving for k, Initial residual = 0.0709013, Final residual = 0.00379375, No Iterations 1
ExecutionTime = 12.2056 s  ClockTime = 13 s

volFieldValue Uavg_propeller write:
    volAverage(propeller) of U = (-0.128688 0.042488 2.30776)

surfaceFieldValue phi_farField write:
    orientedSum(farField) of phi = 0.85111

surfaceFieldValue phi_top write:
    orientedSum(top) of phi = -0.621453

Time = 14s

smoothSolver:  Solving for Ux, Initial residual = 0.0846469, Final residual = 0.00432055, No Iterations 1
smoothSolver:  Solving for Uy, Initial residual = 0.0852422, Final residual = 0.00429607, No Iterations 1
smoothSolver:  Solving for Uz, Initial residual = 0.140045, Final residual = 0.00875155, No Iterations 1
DICPCG:  Solving for p, Initial residual = 0.0598891, Final residual = 0.00267238, No Iterations 12
time step continuity errors : sum local = 0.0263133, global = 0.00267392, cumulative = 0.134283
smoothSolver:  Solving for omega, Initial residual = 0.0369065, Final residual = 0.00192807, No Iterations 1
smoothSolver:  Solving for k, Initial residual = 0.072996, Final residual = 0.00390016, No Iterations 1
ExecutionTime = 12.9374 s  ClockTime = 14 s

volFieldValue Uavg_propeller write:
    volAverage(propeller) of U = (-0.166879 -0.00013031 4.47566)

surfaceFieldValue phi_farField write:
    orientedSum(farField) of phi = 0.792747

surfaceFieldValue phi_top write:
    orientedSum(top) of phi = -0.664399

Time = 15s

--> FOAM Warning : 
    From function void Foam::Function1s::Table<Type>::checkX(Foam::scalar) const [with Type = Foam::Vector2D<double>; Foam::scalar = double]
    in file lnInclude/Table.C at line 107
    "value (1.49189) overflow"

--> FOAM Warning : 
    From function void Foam::Function1s::Table<Type>::checkX(Foam::scalar) const [with Type = Foam::Vector2D<double>; Foam::scalar = double]
    in file lnInclude/Table.C at line 107
    "value (1.46835) overflow"

smoothSolver:  Solving for Ux, Initial residual = 0.0807288, Final residual = 0.00416282, No Iterations 1
smoothSolver:  Solving for Uy, Initial residual = 0.0811899, Final residual = 0.00411639, No Iterations 1
smoothSolver:  Solving for Uz, Initial residual = 0.148606, Final residual = 0.00960398, No Iterations 1
DICPCG:  Solving for p, Initial residual = 0.0701426, Final residual = 0.0034083, No Iterations 17
time step continuity errors : sum local = 0.0283776, global = -0.00238394, cumulative = 0.131899
smoothSolver:  Solving for omega, Initial residual = 0.0355373, Final residual = 0.00187737, No Iterations 1
smoothSolver:  Solving for k, Initial residual = 0.0755259, Final residual = 0.00401589, No Iterations 1
ExecutionTime = 13.6625 s  ClockTime = 14 s

volFieldValue Uavg_propeller write:
    volAverage(propeller) of U = (-0.163094 0.000605488 5.59717)

surfaceFieldValue phi_farField write:
    orientedSum(farField) of phi = 0.575704

surfaceFieldValue phi_top write:
    orientedSum(top) of phi = -0.690133

Time = 16s

--> FOAM Warning : 
    From function void Foam::Function1s::Table<Type>::checkX(Foam::scalar) const [with Type = Foam::Vector2D<double>; Foam::scalar = double]
    in file lnInclude/Table.C at line 107
    "value (1.86572) overflow"

--> FOAM Warning : 
    From function void Foam::Function1s::Table<Type>::checkX(Foam::scalar) const [with Type = Foam::Vector2D<double>; Foam::scalar = double]
    in file lnInclude/Table.C at line 107
    "value (1.8469) overflow"

smoothSolver:  Solving for Ux, Initial residual = 0.0762253, Final residual = 0.00396754, No Iterations 1
smoothSolver:  Solving for Uy, Initial residual = 0.0765811, Final residual = 0.0039148, No Iterations 1
smoothSolver:  Solving for Uz, Initial residual = 0.135938, Final residual = 0.00846529, No Iterations 1
DICPCG:  Solving for p, Initial residual = 0.0736204, Final residual = 0.00338913, No Iterations 19
time step continuity errors : sum local = 0.0301048, global = -6.57546e-05, cumulative = 0.131833
smoothSolver:  Solving for omega, Initial residual = 0.035126, Final residual = 0.00184556, No Iterations 1
smoothSolver:  Solving for k, Initial residual = 0.0769, Final residual = 0.00407239, No Iterations 1
ExecutionTime = 14.3635 s  ClockTime = 15 s

volFieldValue Uavg_propeller write:
    volAverage(propeller) of U = (-0.0885176 0.0181972 5.36764)

surfaceFieldValue phi_farField write:
    orientedSum(farField) of phi = 0.659858

surfaceFieldValue phi_top write:
    orientedSum(top) of phi = -0.663014

Time = 17s

--> FOAM Warning : 
    From function void Foam::Function1s::Table<Type>::checkX(Foam::scalar) const [with Type = Foam::Vector2D<double>; Foam::scalar = double]
    in file lnInclude/Table.C at line 107
    "value (1.78921) overflow"

--> FOAM Warning : 
    From function void Foam::Function1s::Table<Type>::checkX(Foam::scalar) const [with Type = Foam::Vector2D<double>; Foam::scalar = double]
    in file lnInclude/Table.C at line 107
    "value (1.76959) overflow"

smoothSolver:  Solving for Ux, Initial residual = 0.0734434, Final residual = 0.00387195, No Iterations 1
smoothSolver:  Solving for Uy, Initial residual = 0.0736189, Final residual = 0.00383388, No Iterations 1
smoothSolver:  Solving for Uz, Initial residual = 0.110649, Final residual = 0.00646778, No Iterations 1
DICPCG:  Solving for p, Initial residual = 0.0663044, Final residual = 0.00300513, No Iterations 18
time step continuity errors : sum local = 0.0338337, global = 0.00433644, cumulative = 0.136169
smoothSolver:  Solving for omega, Initial residual = 0.0351908, Final residual = 0.00181937, No Iterations 1
smoothSolver:  Solving for k, Initial residual = 0.0780342, Final residual = 0.00411288, No Iterations 1
ExecutionTime = 15.0506 s  ClockTime = 16 s

volFieldValue Uavg_propeller write:
    volAverage(propeller) of U = (-0.0359386 0.0320134 4.002)

surfaceFieldValue phi_farField write:
    orientedSum(farField) of phi = 0.818266

surfaceFieldValue phi_top write:
    orientedSum(top) of phi = -0.610117

Time = 18s

--> FOAM Warning : 
    From function void Foam::Function1s::Table<Type>::checkX(Foam::scalar) const [with Type = Foam::Vector2D<double>; Foam::scalar = double]
    in file lnInclude/Table.C at line 107
    "value (1.334) overflow"

--> FOAM Warning : 
    From function void Foam::Function1s::Table<Type>::checkX(Foam::scalar) const [with Type = Foam::Vector2D<double>; Foam::scalar = double]
    in file lnInclude/Table.C at line 107
    "value (1.30768) overflow"

smoothSolver:  Solving for Ux, Initial residual = 0.0720767, Final residual = 0.00381223, No Iterations 1
smoothSolver:  Solving for Uy, Initial residual = 0.0721765, Final residual = 0.00380236, No Iterations 1
smoothSolver:  Solving for Uz, Initial residual = 0.0941493, Final residual = 0.00507716, No Iterations 1
DICPCG:  Solving for p, Initial residual = 0.0533013, Final residual = 0.00262676, No Iterations 12
time step continuity errors : sum local = 0.0378102, global = 0.0119981, cumulative = 0.148167
smoothSolver:  Solving for omega, Initial residual = 0.0351591, Final residual = 0.00181214, No Iterations 1
smoothSolver:  Solving for k, Initial residual = 0.0785105, Final residual = 0.00413066, No Iterations 1
ExecutionTime = 15.7688 s  ClockTime = 16 s

volFieldValue Uavg_propeller write:
    volAverage(propeller) of U = (-0.00162647 0.0577793 2.03287)

surfaceFieldValue phi_farField write:
    orientedSum(farField) of phi = 1.17588

surfaceFieldValue phi_top write:
    orientedSum(top) of phi = -0.599974

Time = 19s

smoothSolver:  Solving for Ux, Initial residual = 0.0719382, Final residual = 0.00381897, No Iterations 1
smoothSolver:  Solving for Uy, Initial residual = 0.0721474, Final residual = 0.00382782, No Iterations 1
smoothSolver:  Solving for Uz, Initial residual = 0.0859402, Final residual = 0.00478548, No Iterations 1
DICPCG:  Solving for p, Initial residual = 0.0465476, Final residual = 0.00220246, No Iterations 15
time step continuity errors : sum local = 0.0339056, global = 0.015747, cumulative = 0.163914
smoothSolver:  Solving for omega, Initial residual = 0.034742, Final residual = 0.00178269, No Iterations 1
smoothSolver:  Solving for k, Initial residual = 0.0794236, Final residual = 0.00416068, No Iterations 1
ExecutionTime = 16.4676 s  ClockTime = 17 s

volFieldValue Uavg_propeller write:
    volAverage(propeller) of U = (-0.0204103 0.0887855 -0.108942)

surfaceFieldValue phi_farField write:
    orientedSum(farField) of phi = 1.20149

surfaceFieldValue phi_top write:
    orientedSum(top) of phi = -0.445632

Time = 20s

--> FOAM Warning : 
    From function void Foam::Function1s::Table<Type>::checkX(Foam::scalar) const [with Type = Foam::Vector2D<double>; Foam::scalar = double]
    in file lnInclude/Table.C at line 107
    "value (-9.36862) underflow"

smoothSolver:  Solving for Ux, Initial residual = 0.0716562, Final residual = 0.00382827, No Iterations 1
smoothSolver:  Solving for Uy, Initial residual = 0.0719037, Final residual = 0.00383335, No Iterations 1
smoothSolver:  Solving for Uz, Initial residual = 0.0836424, Final residual = 0.00491317, No Iterations 1
DICPCG:  Solving for p, Initial residual = 0.0313481, Final residual = 0.00146971, No Iterations 16
time step continuity errors : sum local = 0.0299318, global = 0.0183993, cumulative = 0.182314
smoothSolver:  Solving for omega, Initial residual = 0.034099, Final residual = 0.001737, No Iterations 1
smoothSolver:  Solving for k, Initial residual = 0.0794862, Final residual = 0.00415922, No Iterations 1
ExecutionTime = 17.1527 s  ClockTime = 18 s

volFieldValue Uavg_propeller write:
    volAverage(propeller) of U = (-0.134665 0.157989 -2.05693)

surfaceFieldValue phi_farField write:
    orientedSum(farField) of phi = 1.20481

surfaceFieldValue phi_top write:
    orientedSum(top) of phi = -0.321645

Time = 21s

smoothSolver:  Solving for Ux, Initial residual = 0.0703667, Final residual = 0.00377599, No Iterations 1
smoothSolver:  Solving for Uy, Initial residual = 0.0706286, Final residual = 0.00377651, No Iterations 1
smoothSolver:  Solving for Uz, Initial residual = 0.082823, Final residual = 0.0048376, No Iterations 1
DICPCG:  Solving for p, Initial residual = 0.0234716, Final residual = 0.00110583, No Iterations 17
time step continuity errors : sum local = 0.0281001, global = 0.0147656, cumulative = 0.197079
smoothSolver:  Solving for omega, Initial residual = 0.0337148, Final residual = 0.00169207, No Iterations 1
smoothSolver:  Solving for k, Initial residual = 0.0792548, Final residual = 0.00414133, No Iterations 1
ExecutionTime = 17.9241 s  ClockTime = 19 s

volFieldValue Uavg_propeller write:
    volAverage(propeller) of U = (-0.301263 0.188846 -2.63089)

surfaceFieldValue phi_farField write:
    orientedSum(farField) of phi = 1.02024

surfaceFieldValue phi_top write:
    orientedSum(top) of phi = -0.311492

Time = 22s

--> FOAM Warning : 
    From function void Foam::Function1s::Table<Type>::checkX(Foam::scalar) const [with Type = Foam::Vector2D<double>; Foam::scalar = double]
    in file lnInclude/Table.C at line 107
    "value (0.876963) overflow"

--> FOAM Warning : 
    From function void Foam::Function1s::Table<Type>::checkX(Foam::scalar) const [with Type = Foam::Vector2D<double>; Foam::scalar = double]
    in file lnInclude/Table.C at line 107
    "value (0.836923) overflow"

smoothSolver:  Solving for Ux, Initial residual = 0.0683233, Final residual = 0.00366812, No Iterations 1
smoothSolver:  Solving for Uy, Initial residual = 0.0685292, Final residual = 0.00365191, No Iterations 1
smoothSolver:  Solving for Uz, Initial residual = 0.0796652, Final residual = 0.00454916, No Iterations 1
DICPCG:  Solving for p, Initial residual = 0.0237213, Final residual = 0.00109097, No Iterations 17
time step continuity errors : sum local = 0.0270546, global = 0.00687901, cumulative = 0.203958
smoothSolver:  Solving for omega, Initial residual = 0.0334087, Final residual = 0.00165667, No Iterations 1
smoothSolver:  Solving for k, Initial residual = 0.0789342, Final residual = 0.0041173, No Iterations 1
ExecutionTime = 18.6278 s  ClockTime = 19 s

volFieldValue Uavg_propeller write:
    volAverage(propeller) of U = (-0.304911 0.140046 -2.09017)

surfaceFieldValue phi_farField write:
    orientedSum(farField) of phi = 0.721487

surfaceFieldValue phi_top write:
    orientedSum(top) of phi = -0.391294

Time = 23s

smoothSolver:  Solving for Ux, Initial residual = 0.0668708, Final residual = 0.00357873, No Iterations 1
smoothSolver:  Solving for Uy, Initial residual = 0.0670651, Final residual = 0.00355369, No Iterations 1
smoothSolver:  Solving for Uz, Initial residual = 0.0773251, Final residual = 0.00433463, No Iterations 1
DICPCG:  Solving for p, Initial residual = 0.0275326, Final residual = 0.0012899, No Iterations 17
time step continuity errors : sum local = 0.0275049, global = -0.0014112, cumulative = 0.202547
smoothSolver:  Solving for omega, Initial residual = 0.0329136, Final residual = 0.0016186, No Iterations 1
smoothSolver:  Solving for k, Initial residual = 0.0785892, Final residual = 0.00409483, No Iterations 1
ExecutionTime = 19.3061 s  ClockTime = 20 s

volFieldValue Uavg_propeller write:
    volAverage(propeller) of U = (-0.339512 0.139043 -1.28523)

surfaceFieldValue phi_farField write:
    orientedSum(farField) of phi = 0.380721

surfaceFieldValue phi_top write:
    orientedSum(top) of phi = -0.448459

Time = 24s

smoothSolver:  Solving for Ux, Initial residual = 0.0660291, Final residual = 0.00352168, No Iterations 1
smoothSolver:  Solving for Uy, Initial residual = 0.0661288, Final residual = 0.00349137, No Iterations 1
smoothSolver:  Solving for Uz, Initial residual = 0.0751501, Final residual = 0.00425719, No Iterations 1
DICPCG:  Solving for p, Initial residual = 0.0306099, Final residual = 0.00144135, No Iterations 17
time step continuity errors : sum local = 0.0267179, global = -0.00790615, cumulative = 0.194641
smoothSolver:  Solving for omega, Initial residual = 0.0322254, Final residual = 0.00158234, No Iterations 1
smoothSolver:  Solving for k, Initial residual = 0.0784847, Final residual = 0.00409249, No Iterations 1
ExecutionTime = 19.9737 s  ClockTime = 21 s

volFieldValue Uavg_propeller write:
    volAverage(propeller) of U = (-0.29887 0.0840406 -0.436712)

surfaceFieldValue phi_farField write:
    orientedSum(farField) of phi = 0.152747

surfaceFieldValue phi_top write:
    orientedSum(top) of phi = -0.532242

Time = 25s

--> FOAM Warning : 
    From function void Foam::Function1s::Table<Type>::checkX(Foam::scalar) const [with Type = Foam::Vector2D<double>; Foam::scalar = double]
    in file lnInclude/Table.C at line 107
    "value (-1.99032) underflow"

smoothSolver:  Solving for Ux, Initial residual = 0.0650896, Final residual = 0.00347539, No Iterations 1
smoothSolver:  Solving for Uy, Initial residual = 0.0652394, Final residual = 0.0034446, No Iterations 1
smoothSolver:  Solving for Uz, Initial residual = 0.0739312, Final residual = 0.00426674, No Iterations 1
DICPCG:  Solving for p, Initial residual = 0.0346843, Final residual = 0.00172595, No Iterations 23
time step continuity errors : sum local = 0.0264072, global = -0.00743014, cumulative = 0.187211
smoothSolver:  Solving for omega, Initial residual = 0.0316148, Final residual = 0.00155276, No Iterations 1
smoothSolver:  Solving for k, Initial residual = 0.0786456, Final residual = 0.00410311, No Iterations 1
ExecutionTime = 20.7066 s  ClockTime = 21 s

volFieldValue Uavg_propeller write:
    volAverage(propeller) of U = (-0.217095 0.0764965 0.472746)

surfaceFieldValue phi_farField write:
    orientedSum(farField) of phi = 0.23038

surfaceFieldValue phi_top write:
    orientedSum(top) of phi = -0.587027

Time = 26s

--> FOAM Warning : 
    From function void Foam::Function1s::Table<Type>::checkX(Foam::scalar) const [with Type = Foam::Vector2D<double>; Foam::scalar = double]
    in file lnInclude/Table.C at line 107
    "value (-1.79123) underflow"

smoothSolver:  Solving for Ux, Initial residual = 0.0639283, Final residual = 0.003418, No Iterations 1
smoothSolver:  Solving for Uy, Initial residual = 0.0640887, Final residual = 0.00338616, No Iterations 1
smoothSolver:  Solving for Uz, Initial residual = 0.0737762, Final residual = 0.00427307, No Iterations 1
DICPCG:  Solving for p, Initial residual = 0.0415522, Final residual = 0.00207087, No Iterations 22
time step continuity errors : sum local = 0.024844, global = -0.00683446, cumulative = 0.180376
smoothSolver:  Solving for omega, Initial residual = 0.0310723, Final residual = 0.001535, No Iterations 1
smoothSolver:  Solving for k, Initial residual = 0.0792203, Final residual = 0.00413084, No Iterations 1
ExecutionTime = 21.388 s  ClockTime = 22 s

volFieldValue Uavg_propeller write:
    volAverage(propeller) of U = (-0.16961 0.0608138 1.10347)

surfaceFieldValue phi_farField write:
    orientedSum(farField) of phi = 0.183353

surfaceFieldValue phi_top write:
    orientedSum(top) of phi = -0.511407

Time = 27s

smoothSolver:  Solving for Ux, Initial residual = 0.062334, Final residual = 0.0033547, No Iterations 1
smoothSolver:  Solving for Uy, Initial residual = 0.0624487, Final residual = 0.0033164, No Iterations 1
smoothSolver:  Solving for Uz, Initial residual = 0.0725038, Final residual = 0.00416452, No Iterations 1
DICPCG:  Solving for p, Initial residual = 0.0450634, Final residual = 0.00212772, No Iterations 21
time step continuity errors : sum local = 0.023877, global = -0.00709569, cumulative = 0.173281
smoothSolver:  Solving for omega, Initial residual = 0.0308517, Final residual = 0.00152693, No Iterations 1
smoothSolver:  Solving for k, Initial residual = 0.0799312, Final residual = 0.00416625, No Iterations 1
ExecutionTime = 22.1559 s  ClockTime = 23 s

volFieldValue Uavg_propeller write:
    volAverage(propeller) of U = (-0.159923 0.0522256 1.12971)

surfaceFieldValue phi_farField write:
    orientedSum(farField) of phi = 0.0935083

surfaceFieldValue phi_top write:
    orientedSum(top) of phi = -0.434102

Time = 28s

smoothSolver:  Solving for Ux, Initial residual = 0.0611911, Final residual = 0.0033165, No Iterations 1
smoothSolver:  Solving for Uy, Initial residual = 0.0612516, Final residual = 0.00327164, No Iterations 1
smoothSolver:  Solving for Uz, Initial residual = 0.0703998, Final residual = 0.00399691, No Iterations 1
DICPCG:  Solving for p, Initial residual = 0.0442279, Final residual = 0.00201281, No Iterations 20
time step continuity errors : sum local = 0.0236265, global = -0.00269416, cumulative = 0.170586
smoothSolver:  Solving for omega, Initial residual = 0.0309153, Final residual = 0.00152723, No Iterations 1
smoothSolver:  Solving for k, Initial residual = 0.0807473, Final residual = 0.00420443, No Iterations 1
ExecutionTime = 22.8599 s  ClockTime = 23 s

volFieldValue Uavg_propeller write:
    volAverage(propeller) of U = (-0.159282 0.0704346 0.588977)

surfaceFieldValue phi_farField write:
    orientedSum(farField) of phi = 0.10812

surfaceFieldValue phi_top write:
    orientedSum(top) of phi = -0.237439

Time = 29s

--> FOAM Warning : 
    From function void Foam::Function1s::Table<Type>::checkX(Foam::scalar) const [with Type = Foam::Vector2D<double>; Foam::scalar = double]
    in file lnInclude/Table.C at line 107
    "value (-1.30391) underflow"

smoothSolver:  Solving for Ux, Initial residual = 0.0605685, Final residual = 0.00330801, No Iterations 1
smoothSolver:  Solving for Uy, Initial residual = 0.060599, Final residual = 0.00326027, No Iterations 1
smoothSolver:  Solving for Uz, Initial residual = 0.068264, Final residual = 0.0038484, No Iterations 1
DICPCG:  Solving for p, Initial residual = 0.0496548, Final residual = 0.00246163, No Iterations 15
time step continuity errors : sum local = 0.0254799, global = -0.00302163, cumulative = 0.167565
smoothSolver:  Solving for omega, Initial residual = 0.0311026, Final residual = 0.00152906, No Iterations 1
smoothSolver:  Solving for k, Initial residual = 0.0817212, Final residual = 0.00425403, No Iterations 1
ExecutionTime = 23.5414 s  ClockTime = 24 s

volFieldValue Uavg_propeller write:
    volAverage(propeller) of U = (-0.194258 0.0864077 -0.164819)

surfaceFieldValue phi_farField write:
    orientedSum(farField) of phi = -0.0468185

surfaceFieldValue phi_top write:
    orientedSum(top) of phi = -0.0982197

Time = 30s

--> FOAM Warning : 
    From function void Foam::Function1s::Table<Type>::checkX(Foam::scalar) const [with Type = Foam::Vector2D<double>; Foam::scalar = double]
    in file lnInclude/Table.C at line 107
    "value (-6.0734) underflow"

smoothSolver:  Solving for Ux, Initial residual = 0.0599921, Final residual = 0.00329934, No Iterations 1
smoothSolver:  Solving for Uy, Initial residual = 0.0600192, Final residual = 0.0032472, No Iterations 1
smoothSolver:  Solving for Uz, Initial residual = 0.0671353, Final residual = 0.00378236, No Iterations 1
DICPCG:  Solving for p, Initial residual = 0.0489078, Final residual = 0.00224827, No Iterations 23
time step continuity errors : sum local = 0.022368, global = 0.00703895, cumulative = 0.174604
smoothSolver:  Solving for omega, Initial residual = 0.0312856, Final residual = 0.00153246, No Iterations 1
smoothSolver:  Solving for k, Initial residual = 0.0825362, Final residual = 0.00429909, No Iterations 1
ExecutionTime = 24.2851 s  ClockTime = 25 s

volFieldValue Uavg_propeller write:
    volAverage(propeller) of U = (-0.216778 0.114077 -0.79689)

surfaceFieldValue phi_farField write:
    orientedSum(farField) of phi = 0.0952918

surfaceFieldValue phi_top write:
    orientedSum(top) of phi = 0.242578

Time = 31s

--> FOAM Warning : 
    From function void Foam::Function1s::Table<Type>::checkX(Foam::scalar) const [with Type = Foam::Vector2D<double>; Foam::scalar = double]
    in file lnInclude/Table.C at line 107
    "value (-0.753333) underflow"

smoothSolver:  Solving for Ux, Initial residual = 0.058821, Final residual = 0.00326488, No Iterations 1
smoothSolver:  Solving for Uy, Initial residual = 0.0588492, Final residual = 0.00320571, No Iterations 1
smoothSolver:  Solving for Uz, Initial residual = 0.0651989, Final residual = 0.00370146, No Iterations 1
DICPCG:  Solving for p, Initial residual = 0.0338018, Final residual = 0.00163899, No Iterations 22
time step continuity errors : sum local = 0.0222586, global = 0.00310352, cumulative = 0.177707
smoothSolver:  Solving for omega, Initial residual = 0.0316162, Final residual = 0.0015445, No Iterations 1
smoothSolver:  Solving for k, Initial residual = 0.0837836, Final residual = 0.00436958, No Iterations 1
ExecutionTime = 24.9997 s  ClockTime = 25 s

volFieldValue Uavg_propeller write:
    volAverage(propeller) of U = (-0.239782 0.140384 -1.21895)

surfaceFieldValue phi_farField write:
    orientedSum(farField) of phi = -0.19673

surfaceFieldValue phi_top write:
    orientedSum(top) of phi = 0.345699

Time = 32s

smoothSolver:  Solving for Ux, Initial residual = 0.0575224, Final residual = 0.00321565, No Iterations 1
smoothSolver:  Solving for Uy, Initial residual = 0.057555, Final residual = 0.00315125, No Iterations 1
smoothSolver:  Solving for Uz, Initial residual = 0.0635769, Final residual = 0.00361745, No Iterations 1
DICPCG:  Solving for p, Initial residual = 0.034951, Final residual = 0.00160322, No Iterations 14
time step continuity errors : sum local = 0.0199026, global = 0.0108532, cumulative = 0.18856
smoothSolver:  Solving for omega, Initial residual = 0.0318673, Final residual = 0.00155642, No Iterations 1
smoothSolver:  Solving for k, Initial residual = 0.0844943, Final residual = 0.00441681, No Iterations 1
ExecutionTime = 25.7161 s  ClockTime = 26 s

volFieldValue Uavg_propeller write:
    volAverage(propeller) of U = (-0.246954 0.15966 -1.40247)

surfaceFieldValue phi_farField write:
    orientedSum(farField) of phi = -0.21162

surfaceFieldValue phi_top write:
    orientedSum(top) of phi = 0.732571

Time = 33s

smoothSolver:  Solving for Ux, Initial residual = 0.0564036, Final residual = 0.00317028, No Iterations 1
smoothSolver:  Solving for Uy, Initial residual = 0.0564382, Final residual = 0.00310241, No Iterations 1
smoothSolver:  Solving for Uz, Initial residual = 0.0622262, Final residual = 0.00352926, No Iterations 1
DICPCG:  Solving for p, Initial residual = 0.0384213, Final residual = 0.00189082, No Iterations 13
time step continuity errors : sum local = 0.0205875, global = 0.00810072, cumulative = 0.196661
smoothSolver:  Solving for omega, Initial residual = 0.0321765, Final residual = 0.00157142, No Iterations 1
smoothSolver:  Solving for k, Initial residual = 0.0851303, Final residual = 0.00447833, No Iterations 1
ExecutionTime = 26.3721 s  ClockTime = 27 s

volFieldValue Uavg_propeller write:
    volAverage(propeller) of U = (-0.239493 0.168937 -1.35946)

surfaceFieldValue phi_farField write:
    orientedSum(farField) of phi = -0.444017

surfaceFieldValue phi_top write:
    orientedSum(top) of phi = 0.832852

Time = 34s

smoothSolver:  Solving for Ux, Initial residual = 0.0554373, Final residual = 0.00313329, No Iterations 1
smoothSolver:  Solving for Uy, Initial residual = 0.0554989, Final residual = 0.0030625, No Iterations 1
smoothSolver:  Solving for Uz, Initial residual = 0.0611465, Final residual = 0.00346127, No Iterations 1
DICPCG:  Solving for p, Initial residual = 0.0610938, Final residual = 0.00294909, No Iterations 14
time step continuity errors : sum local = 0.019289, global = 0.00111635, cumulative = 0.197777
smoothSolver:  Solving for omega, Initial residual = 0.0325333, Final residual = 0.00159579, No Iterations 1
smoothSolver:  Solving for k, Initial residual = 0.0856348, Final residual = 0.0045448, No Iterations 1
ExecutionTime = 27.0492 s  ClockTime = 27 s

volFieldValue Uavg_propeller write:
    volAverage(propeller) of U = (-0.227683 0.171627 -1.20521)

surfaceFieldValue phi_farField write:
    orientedSum(farField) of phi = -0.81705

surfaceFieldValue phi_top write:
    orientedSum(top) of phi = 0.870635

Time = 35s

smoothSolver:  Solving for Ux, Initial residual = 0.0546031, Final residual = 0.00310174, No Iterations 1
smoothSolver:  Solving for Uy, Initial residual = 0.0546922, Final residual = 0.00302761, No Iterations 1
smoothSolver:  Solving for Uz, Initial residual = 0.0609378, Final residual = 0.00345445, No Iterations 1
DICPCG:  Solving for p, Initial residual = 0.0843401, Final residual = 0.00405555, No Iterations 24
time step continuity errors : sum local = 0.0184037, global = -0.00311011, cumulative = 0.194667
smoothSolver:  Solving for omega, Initial residual = 0.0330141, Final residual = 0.00162817, No Iterations 1
smoothSolver:  Solving for k, Initial residual = 0.0858447, Final residual = 0.00460736, No Iterations 1
ExecutionTime = 27.8106 s  ClockTime = 28 s

volFieldValue Uavg_propeller write:
    volAverage(propeller) of U = (-0.216852 0.173296 -0.995536)

surfaceFieldValue phi_farField write:
    orientedSum(farField) of phi = -1.00762

surfaceFieldValue phi_top write:
    orientedSum(top) of phi = 0.858336

Time = 36s

smoothSolver:  Solving for Ux, Initial residual = 0.0538463, Final residual = 0.00307317, No Iterations 1
smoothSolver:  Solving for Uy, Initial residual = 0.0539431, Final residual = 0.00299438, No Iterations 1
smoothSolver:  Solving for Uz, Initial residual = 0.061837, Final residual = 0.00351584, No Iterations 1
DICPCG:  Solving for p, Initial residual = 0.162017, Final residual = 0.00761087, No Iterations 24
time step continuity errors : sum local = 0.0173693, global = -0.0002239, cumulative = 0.194443
smoothSolver:  Solving for omega, Initial residual = 0.0335038, Final residual = 0.00165902, No Iterations 1
smoothSolver:  Solving for k, Initial residual = 0.0854868, Final residual = 0.0046289, No Iterations 1
ExecutionTime = 28.5516 s  ClockTime = 29 s

volFieldValue Uavg_propeller write:
    volAverage(propeller) of U = (-0.209538 0.172507 -0.821799)

surfaceFieldValue phi_farField write:
    orientedSum(farField) of phi = -1.03221

surfaceFieldValue phi_top write:
    orientedSum(top) of phi = 1.02146

Time = 37s

--> FOAM Warning : 
    From function void Foam::Function1s::Table<Type>::checkX(Foam::scalar) const [with Type = Foam::Vector2D<double>; Foam::scalar = double]
    in file lnInclude/Table.C at line 107
    "value (-0.703351) underflow"

smoothSolver:  Solving for Ux, Initial residual = 0.0530525, Final residual = 0.00304206, No Iterations 1
smoothSolver:  Solving for Uy, Initial residual = 0.0531228, Final residual = 0.00295707, No Iterations 1
smoothSolver:  Solving for Uz, Initial residual = 0.0621032, Final residual = 0.00353415, No Iterations 1
DICPCG:  Solving for p, Initial residual = 0.53576, Final residual = 0.0247806, No Iterations 18
time step continuity errors : sum local = 0.0167011, global = -0.00622008, cumulative = 0.188223
smoothSolver:  Solving for omega, Initial residual = 0.0341968, Final residual = 0.00169794, No Iterations 1
smoothSolver:  Solving for k, Initial residual = 0.0852078, Final residual = 0.00463995, No Iterations 1
ExecutionTime = 29.2676 s  ClockTime = 30 s

volFieldValue Uavg_propeller write:
    volAverage(propeller) of U = (-0.202527 0.173665 -0.768128)

surfaceFieldValue phi_farField write:
    orientedSum(farField) of phi = -1.40487

surfaceFieldValue phi_top write:
    orientedSum(top) of phi = 1.10631

Time = 38s

--> FOAM Warning : 
    From function void Foam::Function1s::Table<Type>::checkX(Foam::scalar) const [with Type = Foam::Vector2D<double>; Foam::scalar = double]
    in file lnInclude/Table.C at line 107
    "value (-0.814409) underflow"

smoothSolver:  Solving for Ux, Initial residual = 0.052321, Final residual = 0.00301341, No Iterations 1
smoothSolver:  Solving for Uy, Initial residual = 0.0523667, Final residual = 0.00292313, No Iterations 1
smoothSolver:  Solving for Uz, Initial residual = 0.0613928, Final residual = 0.00348577, No Iterations 1
DICPCG:  Solving for p, Initial residual = 0.209106, Final residual = 0.0104075, No Iterations 17
time step continuity errors : sum local = 0.0173579, global = -0.00525973, cumulative = 0.182964
smoothSolver:  Solving for omega, Initial residual = 0.0350852, Final residual = 0.00174308, No Iterations 1
smoothSolver:  Solving for k, Initial residual = 0.0848019, Final residual = 0.00464029, No Iterations 1
ExecutionTime = 29.9836 s  ClockTime = 30 s

volFieldValue Uavg_propeller write:
    volAverage(propeller) of U = (-0.198628 0.177353 -0.866364)

surfaceFieldValue phi_farField write:
    orientedSum(farField) of phi = -1.48059

surfaceFieldValue phi_top write:
    orientedSum(top) of phi = 1.22813

Time = 39s

--> FOAM Warning : 
    From function void Foam::Function1s::Table<Type>::checkX(Foam::scalar) const [with Type = Foam::Vector2D<double>; Foam::scalar = double]
    in file lnInclude/Table.C at line 107
    "value (-0.619909) underflow"

smoothSolver:  Solving for Ux, Initial residual = 0.051853, Final residual = 0.00299744, No Iterations 1
smoothSolver:  Solving for Uy, Initial residual = 0.051849, Final residual = 0.00290227, No Iterations 1
smoothSolver:  Solving for Uz, Initial residual = 0.060252, Final residual = 0.00341265, No Iterations 1
DICPCG:  Solving for p, Initial residual = 0.146857, Final residual = 0.00701435, No Iterations 17
time step continuity errors : sum local = 0.0160851, global = -0.00218492, cumulative = 0.180779
smoothSolver:  Solving for omega, Initial residual = 0.0361333, Final residual = 0.00179645, No Iterations 1
smoothSolver:  Solving for k, Initial residual = 0.0844984, Final residual = 0.00463713, No Iterations 1
ExecutionTime = 30.7036 s  ClockTime = 31 s

volFieldValue Uavg_propeller write:
    volAverage(propeller) of U = (-0.19373 0.180678 -1.06228)

surfaceFieldValue phi_farField write:
    orientedSum(farField) of phi = -1.47432

surfaceFieldValue phi_top write:
    orientedSum(top) of phi = 1.36945

Time = 40s

smoothSolver:  Solving for Ux, Initial residual = 0.0514789, Final residual = 0.00298518, No Iterations 1
smoothSolver:  Solving for Uy, Initial residual = 0.0514486, Final residual = 0.00288694, No Iterations 1
smoothSolver:  Solving for Uz, Initial residual = 0.0589129, Final residual = 0.00333384, No Iterations 1
DICPCG:  Solving for p, Initial residual = 0.124331, Final residual = 0.00563847, No Iterations 17
time step continuity errors : sum local = 0.0145321, global = 0.000743831, cumulative = 0.181523
smoothSolver:  Solving for omega, Initial residual = 0.0373108, Final residual = 0.00185546, No Iterations 1
smoothSolver:  Solving for k, Initial residual = 0.0845349, Final residual = 0.00464574, No Iterations 1
ExecutionTime = 31.4253 s  ClockTime = 32 s

volFieldValue Uavg_propeller write:
    volAverage(propeller) of U = (-0.184532 0.182673 -1.26746)

surfaceFieldValue phi_farField write:
    orientedSum(farField) of phi = -1.47961

surfaceFieldValue phi_top write:
    orientedSum(top) of phi = 1.51531

Time = 41s

smoothSolver:  Solving for Ux, Initial residual = 0.051012, Final residual = 0.00296707, No Iterations 1
smoothSolver:  Solving for Uy, Initial residual = 0.0509951, Final residual = 0.00286826, No Iterations 1
smoothSolver:  Solving for Uz, Initial residual = 0.0574693, Final residual = 0.00326095, No Iterations 1
DICPCG:  Solving for p, Initial residual = 0.114847, Final residual = 0.00571734, No Iterations 14
time step continuity errors : sum local = 0.0150726, global = 0.00170788, cumulative = 0.18323
smoothSolver:  Solving for omega, Initial residual = 0.0386157, Final residual = 0.00191622, No Iterations 1
smoothSolver:  Solving for k, Initial residual = 0.085092, Final residual = 0.00467434, No Iterations 1
ExecutionTime = 32.1696 s  ClockTime = 32 s

volFieldValue Uavg_propeller write:
    volAverage(propeller) of U = (-0.174025 0.182572 -1.42538)

surfaceFieldValue phi_farField write:
    orientedSum(farField) of phi = -1.57413

surfaceFieldValue phi_top write:
    orientedSum(top) of phi = 1.65611

Time = 42s

smoothSolver:  Solving for Ux, Initial residual = 0.0503479, Final residual = 0.00293491, No Iterations 1
smoothSolver:  Solving for Uy, Initial residual = 0.0503882, Final residual = 0.00283849, No Iterations 1
smoothSolver:  Solving for Uz, Initial residual = 0.0560112, Final residual = 0.00317986, No Iterations 1
DICPCG:  Solving for p, Initial residual = 0.110432, Final residual = 0.00547893, No Iterations 13
time step continuity errors : sum local = 0.0142401, global = 0.00428772, cumulative = 0.187518
smoothSolver:  Solving for omega, Initial residual = 0.0400049, Final residual = 0.00197702, No Iterations 1
smoothSolver:  Solving for k, Initial residual = 0.0861274, Final residual = 0.00472891, No Iterations 1
ExecutionTime = 32.86 s  ClockTime = 33 s

volFieldValue Uavg_propeller write:
    volAverage(propeller) of U = (-0.164496 0.180894 -1.47655)

surfaceFieldValue phi_farField write:
    orientedSum(farField) of phi = -1.61033

surfaceFieldValue phi_top write:
    orientedSum(top) of phi = 1.81614

Time = 43s

smoothSolver:  Solving for Ux, Initial residual = 0.0494735, Final residual = 0.00288832, No Iterations 1
smoothSolver:  Solving for Uy, Initial residual = 0.0495942, Final residual = 0.00279625, No Iterations 1
smoothSolver:  Solving for Uz, Initial residual = 0.0545319, Final residual = 0.00308696, No Iterations 1
DICPCG:  Solving for p, Initial residual = 0.111656, Final residual = 0.00550842, No Iterations 15
time step continuity errors : sum local = 0.0136402, global = 0.00611996, cumulative = 0.193638
smoothSolver:  Solving for omega, Initial residual = 0.0414821, Final residual = 0.00204041, No Iterations 1
smoothSolver:  Solving for k, Initial residual = 0.0874794, Final residual = 0.00479143, No Iterations 1
ExecutionTime = 33.5334 s  ClockTime = 34 s

volFieldValue Uavg_propeller write:
    volAverage(propeller) of U = (-0.156897 0.178094 -1.45019)

surfaceFieldValue phi_farField write:
    orientedSum(farField) of phi = -1.66428

surfaceFieldValue phi_top write:
    orientedSum(top) of phi = 1.95803

Time = 44s

smoothSolver:  Solving for Ux, Initial residual = 0.0484696, Final residual = 0.00283073, No Iterations 1
smoothSolver:  Solving for Uy, Initial residual = 0.0486592, Final residual = 0.00274356, No Iterations 1
smoothSolver:  Solving for Uz, Initial residual = 0.053062, Final residual = 0.00299028, No Iterations 1
DICPCG:  Solving for p, Initial residual = 0.11427, Final residual = 0.00519813, No Iterations 21
time step continuity errors : sum local = 0.0120884, global = 0.00143734, cumulative = 0.195075
smoothSolver:  Solving for omega, Initial residual = 0.0430686, Final residual = 0.00210774, No Iterations 1
smoothSolver:  Solving for k, Initial residual = 0.0890916, Final residual = 0.00485186, No Iterations 1
ExecutionTime = 34.214 s  ClockTime = 34 s

volFieldValue Uavg_propeller write:
    volAverage(propeller) of U = (-0.153869 0.176747 -1.40758)

surfaceFieldValue phi_farField write:
    orientedSum(farField) of phi = -1.95191

surfaceFieldValue phi_top write:
    orientedSum(top) of phi = 2.0209

Time = 45s

smoothSolver:  Solving for Ux, Initial residual = 0.0473567, Final residual = 0.00276284, No Iterations 1
smoothSolver:  Solving for Uy, Initial residual = 0.0475923, Final residual = 0.00268051, No Iterations 1
smoothSolver:  Solving for Uz, Initial residual = 0.0515381, Final residual = 0.00289025, No Iterations 1
DICPCG:  Solving for p, Initial residual = 0.124185, Final residual = 0.0055168, No Iterations 13
time step continuity errors : sum local = 0.0112249, global = 0.0044913, cumulative = 0.199567
smoothSolver:  Solving for omega, Initial residual = 0.0444832, Final residual = 0.00217129, No Iterations 1
smoothSolver:  Solving for k, Initial residual = 0.0902437, Final residual = 0.00488362, No Iterations 1
ExecutionTime = 34.9189 s  ClockTime = 35 s

volFieldValue Uavg_propeller write:
    volAverage(propeller) of U = (-0.153554 0.180113 -1.36507)

surfaceFieldValue phi_farField write:
    orientedSum(farField) of phi = -1.98539

surfaceFieldValue phi_top write:
    orientedSum(top) of phi = 2.20098

Time = 46s

smoothSolver:  Solving for Ux, Initial residual = 0.0464595, Final residual = 0.00270517, No Iterations 1
smoothSolver:  Solving for Uy, Initial residual = 0.0467243, Final residual = 0.00262833, No Iterations 1
smoothSolver:  Solving for Uz, Initial residual = 0.0505961, Final residual = 0.00282314, No Iterations 1
DICPCG:  Solving for p, Initial residual = 0.121107, Final residual = 0.00542133, No Iterations 12
time step continuity errors : sum local = 0.0107523, global = 0.00221328, cumulative = 0.20178
smoothSolver:  Solving for omega, Initial residual = 0.0458328, Final residual = 0.0022328, No Iterations 1
smoothSolver:  Solving for k, Initial residual = 0.0911264, Final residual = 0.0048913, No Iterations 1
ExecutionTime = 35.5887 s  ClockTime = 36 s

volFieldValue Uavg_propeller write:
    volAverage(propeller) of U = (-0.155571 0.183586 -1.34086)

surfaceFieldValue phi_farField write:
    orientedSum(farField) of phi = -2.19806

surfaceFieldValue phi_top write:
    orientedSum(top) of phi = 2.3043

Time = 47s

smoothSolver:  Solving for Ux, Initial residual = 0.045599, Final residual = 0.00264554, No Iterations 1
smoothSolver:  Solving for Uy, Initial residual = 0.045876, Final residual = 0.00257512, No Iterations 1
smoothSolver:  Solving for Uz, Initial residual = 0.0495995, Final residual = 0.00274901, No Iterations 1
DICPCG:  Solving for p, Initial residual = 0.115782, Final residual = 0.00554391, No Iterations 11
time step continuity errors : sum local = 0.0109103, global = -0.000154317, cumulative = 0.201626
smoothSolver:  Solving for omega, Initial residual = 0.046948, Final residual = 0.00228116, No Iterations 1
smoothSolver:  Solving for k, Initial residual = 0.0914572, Final residual = 0.00486892, No Iterations 1
ExecutionTime = 36.2803 s  ClockTime = 36 s

volFieldValue Uavg_propeller write:
    volAverage(propeller) of U = (-0.157789 0.189507 -1.33801)

surfaceFieldValue phi_farField write:
    orientedSum(farField) of phi = -2.41172

surfaceFieldValue phi_top write:
    orientedSum(top) of phi = 2.40431

Time = 48s

smoothSolver:  Solving for Ux, Initial residual = 0.0447551, Final residual = 0.00258415, No Iterations 1
smoothSolver:  Solving for Uy, Initial residual = 0.0450466, Final residual = 0.00252013, No Iterations 1
smoothSolver:  Solving for Uz, Initial residual = 0.0485239, Final residual = 0.00266784, No Iterations 1
DICPCG:  Solving for p, Initial residual = 0.109718, Final residual = 0.0051601, No Iterations 12
time step continuity errors : sum local = 0.0101453, global = -0.00168867, cumulative = 0.199937
smoothSolver:  Solving for omega, Initial residual = 0.0477848, Final residual = 0.00231512, No Iterations 1
smoothSolver:  Solving for k, Initial residual = 0.0913055, Final residual = 0.0048274, No Iterations 1
ExecutionTime = 36.9561 s  ClockTime = 37 s

volFieldValue Uavg_propeller write:
    volAverage(propeller) of U = (-0.159302 0.192823 -1.35372)

surfaceFieldValue phi_farField write:
    orientedSum(farField) of phi = -2.58714

surfaceFieldValue phi_top write:
    orientedSum(top) of phi = 2.50608

Time = 49s

smoothSolver:  Solving for Ux, Initial residual = 0.0439483, Final residual = 0.002523, No Iterations 1
smoothSolver:  Solving for Uy, Initial residual = 0.0442746, Final residual = 0.00246568, No Iterations 1
smoothSolver:  Solving for Uz, Initial residual = 0.0473603, Final residual = 0.00258109, No Iterations 1
DICPCG:  Solving for p, Initial residual = 0.102813, Final residual = 0.0047431, No Iterations 14
time step continuity errors : sum local = 0.00940874, global = -0.00196839, cumulative = 0.197969
smoothSolver:  Solving for omega, Initial residual = 0.0483518, Final residual = 0.00233231, No Iterations 1
smoothSolver:  Solving for k, Initial residual = 0.090797, Final residual = 0.00475914, No Iterations 1
ExecutionTime = 37.5929 s  ClockTime = 38 s

volFieldValue Uavg_propeller write:
    volAverage(propeller) of U = (-0.159914 0.193139 -1.38318)

surfaceFieldValue phi_farField write:
    orientedSum(farField) of phi = -2.7087

surfaceFieldValue phi_top write:
    orientedSum(top) of phi = 2.61422

Time = 50s

smoothSolver:  Solving for Ux, Initial residual = 0.0432351, Final residual = 0.00246618, No Iterations 1
smoothSolver:  Solving for Uy, Initial residual = 0.0436118, Final residual = 0.00241535, No Iterations 1
smoothSolver:  Solving for Uz, Initial residual = 0.0460647, Final residual = 0.00248691, No Iterations 1
DICPCG:  Solving for p, Initial residual = 0.0953387, Final residual = 0.00419402, No Iterations 15
time step continuity errors : sum local = 0.00844828, global = -0.00188604, cumulative = 0.196083
smoothSolver:  Solving for omega, Initial residual = 0.0486694, Final residual = 0.0023327, No Iterations 1
smoothSolver:  Solving for k, Initial residual = 0.0903737, Final residual = 0.00466463, No Iterations 1
ExecutionTime = 39.3061 s  ClockTime = 39 s

volFieldValue Uavg_propeller write:
    volAverage(propeller) of U = (-0.159848 0.191571 -1.41055)

surfaceFieldValue phi_farField write:
    orientedSum(farField) of phi = -2.8201

surfaceFieldValue phi_top write:
    orientedSum(top) of phi = 2.72957

Time = 51s

smoothSolver:  Solving for Ux, Initial residual = 0.0425952, Final residual = 0.00241402, No Iterations 1
smoothSolver:  Solving for Uy, Initial residual = 0.0430311, Final residual = 0.00236836, No Iterations 1
smoothSolver:  Solving for Uz, Initial residual = 0.0446375, Final residual = 0.00238413, No Iterations 1
DICPCG:  Solving for p, Initial residual = 0.0886807, Final residual = 0.00431974, No Iterations 14
time step continuity errors : sum local = 0.00881235, global = -0.00158768, cumulative = 0.194495
smoothSolver:  Solving for omega, Initial residual = 0.0487734, Final residual = 0.00231825, No Iterations 1
smoothSolver:  Solving for k, Initial residual = 0.0898265, Final residual = 0.00455464, No Iterations 1
ExecutionTime = 40.0287 s  ClockTime = 40 s

volFieldValue Uavg_propeller write:
    volAverage(propeller) of U = (-0.159457 0.189244 -1.43207)

surfaceFieldValue phi_farField write:
    orientedSum(farField) of phi = -2.92605

surfaceFieldValue phi_top write:
    orientedSum(top) of phi = 2.84984

Time = 52s

smoothSolver:  Solving for Ux, Initial residual = 0.0418617, Final residual = 0.00235651, No Iterations 1
smoothSolver:  Solving for Uy, Initial residual = 0.0423435, Final residual = 0.00231522, No Iterations 1
smoothSolver:  Solving for Uz, Initial residual = 0.0431, Final residual = 0.00227301, No Iterations 1
DICPCG:  Solving for p, Initial residual = 0.0840294, Final residual = 0.00410376, No Iterations 12
time step continuity errors : sum local = 0.00836235, global = -0.000886373, cumulative = 0.193609
smoothSolver:  Solving for omega, Initial residual = 0.048614, Final residual = 0.00229117, No Iterations 1
smoothSolver:  Solving for k, Initial residual = 0.0890489, Final residual = 0.00442943, No Iterations 1
ExecutionTime = 40.7365 s  ClockTime = 41 s

volFieldValue Uavg_propeller write:
    volAverage(propeller) of U = (-0.15943 0.18701 -1.44505)

surfaceFieldValue phi_farField write:
    orientedSum(farField) of phi = -3.01482

surfaceFieldValue phi_top write:
    orientedSum(top) of phi = 2.97227

Time = 53s

smoothSolver:  Solving for Ux, Initial residual = 0.0409812, Final residual = 0.00228964, No Iterations 1
smoothSolver:  Solving for Uy, Initial residual = 0.0414883, Final residual = 0.00225286, No Iterations 1
smoothSolver:  Solving for Uz, Initial residual = 0.0414779, Final residual = 0.00215573, No Iterations 1
DICPCG:  Solving for p, Initial residual = 0.0807175, Final residual = 0.00359858, No Iterations 12
time step continuity errors : sum local = 0.00723786, global = 0.000822398, cumulative = 0.194431
smoothSolver:  Solving for omega, Initial residual = 0.0481908, Final residual = 0.00224908, No Iterations 1
smoothSolver:  Solving for k, Initial residual = 0.0881102, Final residual = 0.00429142, No Iterations 1
ExecutionTime = 41.4082 s  ClockTime = 42 s

volFieldValue Uavg_propeller write:
    volAverage(propeller) of U = (-0.160489 0.185477 -1.44915)

surfaceFieldValue phi_farField write:
    orientedSum(farField) of phi = -3.06718

surfaceFieldValue phi_top write:
    orientedSum(top) of phi = 3.10666

Time = 54s

smoothSolver:  Solving for Ux, Initial residual = 0.039982, Final residual = 0.00221392, No Iterations 1
smoothSolver:  Solving for Uy, Initial residual = 0.0404914, Final residual = 0.00218191, No Iterations 1
smoothSolver:  Solving for Uz, Initial residual = 0.0397685, Final residual = 0.00203223, No Iterations 1
DICPCG:  Solving for p, Initial residual = 0.0780871, Final residual = 0.00343858, No Iterations 12
time step continuity errors : sum local = 0.00675694, global = 0.00263414, cumulative = 0.197065
smoothSolver:  Solving for omega, Initial residual = 0.0474885, Final residual = 0.00219234, No Iterations 1
smoothSolver:  Solving for k, Initial residual = 0.087189, Final residual = 0.00414259, No Iterations 1
ExecutionTime = 42.0479 s  ClockTime = 43 s

volFieldValue Uavg_propeller write:
    volAverage(propeller) of U = (-0.162707 0.184818 -1.44655)

surfaceFieldValue phi_farField write:
    orientedSum(farField) of phi = -3.12152

surfaceFieldValue phi_top write:
    orientedSum(top) of phi = 3.24795

Time = 55s

smoothSolver:  Solving for Ux, Initial residual = 0.0388864, Final residual = 0.00213159, No Iterations 1
smoothSolver:  Solving for Uy, Initial residual = 0.0393954, Final residual = 0.002105, No Iterations 1
smoothSolver:  Solving for Uz, Initial residual = 0.0379511, Final residual = 0.00190243, No Iterations 1
DICPCG:  Solving for p, Initial residual = 0.0765066, Final residual = 0.00361366, No Iterations 18
time step continuity errors : sum local = 0.00682567, global = 0.000944567, cumulative = 0.19801
smoothSolver:  Solving for omega, Initial residual = 0.0465038, Final residual = 0.00212275, No Iterations 1
smoothSolver:  Solving for k, Initial residual = 0.0860106, Final residual = 0.00398597, No Iterations 1
ExecutionTime = 42.7799 s  ClockTime = 44 s

volFieldValue Uavg_propeller write:
    volAverage(propeller) of U = (-0.166137 0.184821 -1.44118)

surfaceFieldValue phi_farField write:
    orientedSum(farField) of phi = -3.3306

surfaceFieldValue phi_top write:
    orientedSum(top) of phi = 3.37593

Time = 56s

smoothSolver:  Solving for Ux, Initial residual = 0.0375843, Final residual = 0.00203834, No Iterations 1
smoothSolver:  Solving for Uy, Initial residual = 0.0380877, Final residual = 0.0020162, No Iterations 1
smoothSolver:  Solving for Uz, Initial residual = 0.0357858, Final residual = 0.00175623, No Iterations 1
DICPCG:  Solving for p, Initial residual = 0.0789163, Final residual = 0.00360663, No Iterations 20
time step continuity errors : sum local = 0.00621057, global = -7.68942e-05, cumulative = 0.197933
smoothSolver:  Solving for omega, Initial residual = 0.0452838, Final residual = 0.0020415, No Iterations 1
smoothSolver:  Solving for k, Initial residual = 0.0845424, Final residual = 0.00382391, No Iterations 1
ExecutionTime = 43.4973 s  ClockTime = 44 s

volFieldValue Uavg_propeller write:
    volAverage(propeller) of U = (-0.170337 0.18526 -1.43637)

surfaceFieldValue phi_farField write:
    orientedSum(farField) of phi = -3.49331

surfaceFieldValue phi_top write:
    orientedSum(top) of phi = 3.48962

Time = 57s

smoothSolver:  Solving for Ux, Initial residual = 0.0362334, Final residual = 0.00193899, No Iterations 1
smoothSolver:  Solving for Uy, Initial residual = 0.0367731, Final residual = 0.00192333, No Iterations 1
smoothSolver:  Solving for Uz, Initial residual = 0.0335044, Final residual = 0.00160863, No Iterations 1
DICPCG:  Solving for p, Initial residual = 0.0835598, Final residual = 0.00393175, No Iterations 19
time step continuity errors : sum local = 0.00604209, global = -0.000138768, cumulative = 0.197794
smoothSolver:  Solving for omega, Initial residual = 0.0437147, Final residual = 0.00194487, No Iterations 1
smoothSolver:  Solving for k, Initial residual = 0.082473, Final residual = 0.00364593, No Iterations 1
ExecutionTime = 44.2113 s  ClockTime = 45 s

volFieldValue Uavg_propeller write:
    volAverage(propeller) of U = (-0.174762 0.185853 -1.43442)

surfaceFieldValue phi_farField write:
    orientedSum(farField) of phi = -3.61572

surfaceFieldValue phi_top write:
    orientedSum(top) of phi = 3.60906

Time = 58s

smoothSolver:  Solving for Ux, Initial residual = 0.0349524, Final residual = 0.00184052, No Iterations 1
smoothSolver:  Solving for Uy, Initial residual = 0.0355537, Final residual = 0.00183191, No Iterations 1
smoothSolver:  Solving for Uz, Initial residual = 0.0313794, Final residual = 0.00147262, No Iterations 1
DICPCG:  Solving for p, Initial residual = 0.0877925, Final residual = 0.00377114, No Iterations 10
time step continuity errors : sum local = 0.00521835, global = 0.00280922, cumulative = 0.200603
smoothSolver:  Solving for omega, Initial residual = 0.041919, Final residual = 0.0018365, No Iterations 1
smoothSolver:  Solving for k, Initial residual = 0.0799881, Final residual = 0.00346607, No Iterations 1
ExecutionTime = 44.898 s  ClockTime = 46 s

volFieldValue Uavg_propeller write:
    volAverage(propeller) of U = (-0.179057 0.186401 -1.43513)

surfaceFieldValue phi_farField write:
    orientedSum(farField) of phi = -3.62442

surfaceFieldValue phi_top write:
    orientedSum(top) of phi = 3.75927

Time = 59s

smoothSolver:  Solving for Ux, Initial residual = 0.0337213, Final residual = 0.00174511, No Iterations 1
smoothSolver:  Solving for Uy, Initial residual = 0.0343742, Final residual = 0.00174204, No Iterations 1
smoothSolver:  Solving for Uz, Initial residual = 0.0296711, Final residual = 0.00136162, No Iterations 1
DICPCG:  Solving for p, Initial residual = 0.0856836, Final residual = 0.00402055, No Iterations 9
time step continuity errors : sum local = 0.00535393, global = 0.00229574, cumulative = 0.202899
smoothSolver:  Solving for omega, Initial residual = 0.0398116, Final residual = 0.00171784, No Iterations 1
smoothSolver:  Solving for k, Initial residual = 0.0768786, Final residual = 0.00328256, No Iterations 1
ExecutionTime = 45.5688 s  ClockTime = 46 s

volFieldValue Uavg_propeller write:
    volAverage(propeller) of U = (-0.18281 0.186624 -1.4377)

surfaceFieldValue phi_farField write:
    orientedSum(farField) of phi = -3.76786

surfaceFieldValue phi_top write:
    orientedSum(top) of phi = 3.87806

Time = 60s

smoothSolver:  Solving for Ux, Initial residual = 0.0324126, Final residual = 0.00164511, No Iterations 1
smoothSolver:  Solving for Uy, Initial residual = 0.0330971, Final residual = 0.00164536, No Iterations 1
smoothSolver:  Solving for Uz, Initial residual = 0.0280545, Final residual = 0.00125659, No Iterations 1
DICPCG:  Solving for p, Initial residual = 0.0838632, Final residual = 0.00412835, No Iterations 10
time step continuity errors : sum local = 0.00526939, global = 0.00217133, cumulative = 0.20507
smoothSolver:  Solving for omega, Initial residual = 0.0375159, Final residual = 0.00159689, No Iterations 1
smoothSolver:  Solving for k, Initial residual = 0.0733785, Final residual = 0.00310005, No Iterations 1
ExecutionTime = 46.305 s  ClockTime = 47 s

volFieldValue Uavg_propeller write:
    volAverage(propeller) of U = (-0.186122 0.186596 -1.44068)

surfaceFieldValue phi_farField write:
    orientedSum(farField) of phi = -3.89354

surfaceFieldValue phi_top write:
    orientedSum(top) of phi = 3.99776

Time = 61s

smoothSolver:  Solving for Ux, Initial residual = 0.0310096, Final residual = 0.00153674, No Iterations 1
smoothSolver:  Solving for Uy, Initial residual = 0.0316804, Final residual = 0.00154269, No Iterations 1
smoothSolver:  Solving for Uz, Initial residual = 0.0265466, Final residual = 0.00116053, No Iterations 1
DICPCG:  Solving for p, Initial residual = 0.0811046, Final residual = 0.00403272, No Iterations 13
time step continuity errors : sum local = 0.00493091, global = 0.000846414, cumulative = 0.205917
smoothSolver:  Solving for omega, Initial residual = 0.0352264, Final residual = 0.00148037, No Iterations 1
smoothSolver:  Solving for k, Initial residual = 0.0695164, Final residual = 0.002928, No Iterations 1
ExecutionTime = 47.0054 s  ClockTime = 48 s

volFieldValue Uavg_propeller write:
    volAverage(propeller) of U = (-0.189536 0.186268 -1.4427)

surfaceFieldValue phi_farField write:
    orientedSum(farField) of phi = -4.07156

surfaceFieldValue phi_top write:
    orientedSum(top) of phi = 4.11219

Time = 62s

smoothSolver:  Solving for Ux, Initial residual = 0.0293567, Final residual = 0.00141825, No Iterations 1
smoothSolver:  Solving for Uy, Initial residual = 0.0300296, Final residual = 0.00143026, No Iterations 1
smoothSolver:  Solving for Uz, Initial residual = 0.0250949, Final residual = 0.00107273, No Iterations 1
DICPCG:  Solving for p, Initial residual = 0.0795059, Final residual = 0.00366103, No Iterations 14
time step continuity errors : sum local = 0.00422726, global = 0.000637136, cumulative = 0.206554
smoothSolver:  Solving for omega, Initial residual = 0.0329976, Final residual = 0.00137457, No Iterations 1
smoothSolver:  Solving for k, Initial residual = 0.0655084, Final residual = 0.0027612, No Iterations 1
ExecutionTime = 47.6542 s  ClockTime = 48 s

volFieldValue Uavg_propeller write:
    volAverage(propeller) of U = (-0.193253 0.18561 -1.44283)

surfaceFieldValue phi_farField write:
    orientedSum(farField) of phi = -4.20375

surfaceFieldValue phi_top write:
    orientedSum(top) of phi = 4.23433

Time = 63s

smoothSolver:  Solving for Ux, Initial residual = 0.0276692, Final residual = 0.00130082, No Iterations 1
smoothSolver:  Solving for Uy, Initial residual = 0.0283314, Final residual = 0.0013174, No Iterations 1
smoothSolver:  Solving for Uz, Initial residual = 0.0237177, Final residual = 0.000993741, No Iterations 1
DICPCG:  Solving for p, Initial residual = 0.0787854, Final residual = 0.00389411, No Iterations 14
time step continuity errors : sum local = 0.00423322, global = 0.000819175, cumulative = 0.207373
smoothSolver:  Solving for omega, Initial residual = 0.030919, Final residual = 0.00128104, No Iterations 1
smoothSolver:  Solving for k, Initial residual = 0.0615786, Final residual = 0.00260317, No Iterations 1
ExecutionTime = 48.3379 s  ClockTime = 49 s

volFieldValue Uavg_propeller write:
    volAverage(propeller) of U = (-0.197398 0.184652 -1.44145)

surfaceFieldValue phi_farField write:
    orientedSum(farField) of phi = -4.32239

surfaceFieldValue phi_top write:
    orientedSum(top) of phi = 4.36171

Time = 64s

smoothSolver:  Solving for Ux, Initial residual = 0.0261329, Final residual = 0.00119261, No Iterations 1
smoothSolver:  Solving for Uy, Initial residual = 0.0267538, Final residual = 0.00121197, No Iterations 1
smoothSolver:  Solving for Uz, Initial residual = 0.0224539, Final residual = 0.000923834, No Iterations 1
DICPCG:  Solving for p, Initial residual = 0.0782906, Final residual = 0.00389097, No Iterations 17
time step continuity errors : sum local = 0.0039716, global = 0.000623221, cumulative = 0.207996
smoothSolver:  Solving for omega, Initial residual = 0.0290391, Final residual = 0.00119895, No Iterations 1
smoothSolver:  Solving for k, Initial residual = 0.0577953, Final residual = 0.00244647, No Iterations 1
ExecutionTime = 49.0844 s  ClockTime = 50 s

volFieldValue Uavg_propeller write:
    volAverage(propeller) of U = (-0.201867 0.183501 -1.43868)

surfaceFieldValue phi_farField write:
    orientedSum(farField) of phi = -4.4597

surfaceFieldValue phi_top write:
    orientedSum(top) of phi = 4.48961

Time = 65s

smoothSolver:  Solving for Ux, Initial residual = 0.0248078, Final residual = 0.00109943, No Iterations 1
smoothSolver:  Solving for Uy, Initial residual = 0.0253963, Final residual = 0.00112041, No Iterations 1
smoothSolver:  Solving for Uz, Initial residual = 0.0213147, Final residual = 0.000862993, No Iterations 1
DICPCG:  Solving for p, Initial residual = 0.0782754, Final residual = 0.00377785, No Iterations 22
time step continuity errors : sum local = 0.00358334, global = 0.000198761, cumulative = 0.208195
smoothSolver:  Solving for omega, Initial residual = 0.0273039, Final residual = 0.00112975, No Iterations 1
smoothSolver:  Solving for k, Initial residual = 0.0542191, Final residual = 0.00229432, No Iterations 1
ExecutionTime = 49.8722 s  ClockTime = 51 s

volFieldValue Uavg_propeller write:
    volAverage(propeller) of U = (-0.206552 0.182284 -1.43539)

surfaceFieldValue phi_farField write:
    orientedSum(farField) of phi = -4.60791

surfaceFieldValue phi_top write:
    orientedSum(top) of phi = 4.61745

Time = 66s

smoothSolver:  Solving for Ux, Initial residual = 0.0237068, Final residual = 0.00102226, No Iterations 1
smoothSolver:  Solving for Uy, Initial residual = 0.0242806, Final residual = 0.00104548, No Iterations 1
smoothSolver:  Solving for Uz, Initial residual = 0.0202811, Final residual = 0.000810858, No Iterations 1
DICPCG:  Solving for p, Initial residual = 0.0795966, Final residual = 0.00392185, No Iterations 19
time step continuity errors : sum local = 0.00338586, global = 0.00038988, cumulative = 0.208585
smoothSolver:  Solving for omega, Initial residual = 0.0258592, Final residual = 0.00107536, No Iterations 1
smoothSolver:  Solving for k, Initial residual = 0.0509412, Final residual = 0.0021598, No Iterations 1
ExecutionTime = 50.584 s  ClockTime = 51 s

volFieldValue Uavg_propeller write:
    volAverage(propeller) of U = (-0.211243 0.180878 -1.43203)

surfaceFieldValue phi_farField write:
    orientedSum(farField) of phi = -4.72623

surfaceFieldValue phi_top write:
    orientedSum(top) of phi = 4.74495

Time = 67s

smoothSolver:  Solving for Ux, Initial residual = 0.0227399, Final residual = 0.000956523, No Iterations 1
smoothSolver:  Solving for Uy, Initial residual = 0.0233095, Final residual = 0.000981278, No Iterations 1
smoothSolver:  Solving for Uz, Initial residual = 0.0194338, Final residual = 0.000767511, No Iterations 1
DICPCG:  Solving for p, Initial residual = 0.0802747, Final residual = 0.00387009, No Iterations 16
time step continuity errors : sum local = 0.00308999, global = 0.000656199, cumulative = 0.209241
[...]
smoothSolver:  Solving for Uy, Initial residual = 0.00155344, Final residual = 0.000149014, No Iterations 1
smoothSolver:  Solving for Uz, Initial residual = 0.00146356, Final residual = 0.000140538, No Iterations 1
DICPCG:  Solving for p, Initial residual = 0.00512386, Final residual = 0.000235188, No Iterations 17
time step continuity errors : sum local = 3.06594e-05, global = 8.7202e-07, cumulative = 0.233655
smoothSolver:  Solving for omega, Initial residual = 0.00056405, Final residual = 4.09495e-05, No Iterations 1
smoothSolver:  Solving for k, Initial residual = 0.00246232, Final residual = 0.00022573, No Iterations 1
ExecutionTime = 825.494 s  ClockTime = 826 s

volFieldValue Uavg_propeller write:
    volAverage(propeller) of U = (0.262875 0.0761715 -1.25429)

surfaceFieldValue phi_farField write:
    orientedSum(farField) of phi = 1.90274

surfaceFieldValue phi_top write:
    orientedSum(top) of phi = -1.9027

Time = 983s

smoothSolver:  Solving for Ux, Initial residual = 0.00231402, Final residual = 2.45216e-05, No Iterations 2
smoothSolver:  Solving for Uy, Initial residual = 0.00155475, Final residual = 0.000149059, No Iterations 1
smoothSolver:  Solving for Uz, Initial residual = 0.0014666, Final residual = 0.000140842, No Iterations 1
DICPCG:  Solving for p, Initial residual = 0.00511613, Final residual = 0.000235635, No Iterations 17
time step continuity errors : sum local = 3.06669e-05, global = 7.0984e-07, cumulative = 0.233656
smoothSolver:  Solving for omega, Initial residual = 0.000567629, Final residual = 4.09377e-05, No Iterations 1
smoothSolver:  Solving for k, Initial residual = 0.00246699, Final residual = 0.000226084, No Iterations 1
ExecutionTime = 826.68 s  ClockTime = 827 s

volFieldValue Uavg_propeller write:
    volAverage(propeller) of U = (0.263052 0.0762683 -1.25435)

surfaceFieldValue phi_farField write:
    orientedSum(farField) of phi = 1.90911

surfaceFieldValue phi_top write:
    orientedSum(top) of phi = -1.90908

Time = 984s

smoothSolver:  Solving for Ux, Initial residual = 0.00232043, Final residual = 2.45922e-05, No Iterations 2
smoothSolver:  Solving for Uy, Initial residual = 0.00155564, Final residual = 0.000149101, No Iterations 1
smoothSolver:  Solving for Uz, Initial residual = 0.00146983, Final residual = 0.00014114, No Iterations 1
DICPCG:  Solving for p, Initial residual = 0.00511731, Final residual = 0.000232596, No Iterations 17
time step continuity errors : sum local = 3.03998e-05, global = 5.54669e-07, cumulative = 0.233656
smoothSolver:  Solving for omega, Initial residual = 0.00056517, Final residual = 4.10399e-05, No Iterations 1
smoothSolver:  Solving for k, Initial residual = 0.00247082, Final residual = 0.000226252, No Iterations 1
ExecutionTime = 827.747 s  ClockTime = 828 s

volFieldValue Uavg_propeller write:
    volAverage(propeller) of U = (0.263232 0.076369 -1.25441)

surfaceFieldValue phi_farField write:
    orientedSum(farField) of phi = 1.91552

surfaceFieldValue phi_top write:
    orientedSum(top) of phi = -1.91549

Time = 985s

smoothSolver:  Solving for Ux, Initial residual = 0.00232619, Final residual = 2.46598e-05, No Iterations 2
smoothSolver:  Solving for Uy, Initial residual = 0.00155628, Final residual = 0.000149131, No Iterations 1
smoothSolver:  Solving for Uz, Initial residual = 0.00147262, Final residual = 0.00014144, No Iterations 1
DICPCG:  Solving for p, Initial residual = 0.00509103, Final residual = 0.000230577, No Iterations 17
time step continuity errors : sum local = 3.02237e-05, global = 4.01435e-07, cumulative = 0.233657
smoothSolver:  Solving for omega, Initial residual = 0.000568043, Final residual = 4.09662e-05, No Iterations 1
smoothSolver:  Solving for k, Initial residual = 0.0024718, Final residual = 0.00022642, No Iterations 1
ExecutionTime = 828.855 s  ClockTime = 829 s

volFieldValue Uavg_propeller write:
    volAverage(propeller) of U = (0.263415 0.0764734 -1.25447)

surfaceFieldValue phi_farField write:
    orientedSum(farField) of phi = 1.92194

surfaceFieldValue phi_top write:
    orientedSum(top) of phi = -1.92192

Time = 986s

smoothSolver:  Solving for Ux, Initial residual = 0.00233238, Final residual = 2.47269e-05, No Iterations 2
smoothSolver:  Solving for Uy, Initial residual = 0.00155735, Final residual = 0.000149169, No Iterations 1
smoothSolver:  Solving for Uz, Initial residual = 0.0014758, Final residual = 0.000141742, No Iterations 1
DICPCG:  Solving for p, Initial residual = 0.00506872, Final residual = 0.000229258, No Iterations 17
time step continuity errors : sum local = 3.00547e-05, global = 2.48643e-07, cumulative = 0.233657
smoothSolver:  Solving for omega, Initial residual = 0.00056539, Final residual = 4.09721e-05, No Iterations 1
smoothSolver:  Solving for k, Initial residual = 0.00247462, Final residual = 0.000226659, No Iterations 1
ExecutionTime = 829.925 s  ClockTime = 830 s

volFieldValue Uavg_propeller write:
    volAverage(propeller) of U = (0.263601 0.0765812 -1.25454)

surfaceFieldValue phi_farField write:
    orientedSum(farField) of phi = 1.92841

surfaceFieldValue phi_top write:
    orientedSum(top) of phi = -1.9284

Time = 987s

smoothSolver:  Solving for Ux, Initial residual = 0.00233829, Final residual = 2.47928e-05, No Iterations 2
smoothSolver:  Solving for Uy, Initial residual = 0.00155794, Final residual = 0.000149188, No Iterations 1
smoothSolver:  Solving for Uz, Initial residual = 0.00147885, Final residual = 0.000142036, No Iterations 1
DICPCG:  Solving for p, Initial residual = 0.00503644, Final residual = 0.000228214, No Iterations 17
time step continuity errors : sum local = 2.99835e-05, global = 9.31771e-08, cumulative = 0.233657
smoothSolver:  Solving for omega, Initial residual = 0.000566355, Final residual = 4.10528e-05, No Iterations 1
smoothSolver:  Solving for k, Initial residual = 0.00247503, Final residual = 0.000226662, No Iterations 1
ExecutionTime = 831.053 s  ClockTime = 832 s

volFieldValue Uavg_propeller write:
    volAverage(propeller) of U = (0.263789 0.0766925 -1.2546)

surfaceFieldValue phi_farField write:
    orientedSum(farField) of phi = 1.93489

surfaceFieldValue phi_top write:
    orientedSum(top) of phi = -1.93489

Time = 988s

smoothSolver:  Solving for Ux, Initial residual = 0.0023439, Final residual = 2.48573e-05, No Iterations 2
smoothSolver:  Solving for Uy, Initial residual = 0.00155871, Final residual = 0.000149219, No Iterations 1
smoothSolver:  Solving for Uz, Initial residual = 0.00148175, Final residual = 0.000142341, No Iterations 1
DICPCG:  Solving for p, Initial residual = 0.00501488, Final residual = 0.00022934, No Iterations 17
time step continuity errors : sum local = 3.01312e-05, global = -6.15615e-08, cumulative = 0.233657
smoothSolver:  Solving for omega, Initial residual = 0.000565166, Final residual = 4.09753e-05, No Iterations 1
smoothSolver:  Solving for k, Initial residual = 0.00247711, Final residual = 0.000226831, No Iterations 1
ExecutionTime = 832.106 s  ClockTime = 833 s

volFieldValue Uavg_propeller write:
    volAverage(propeller) of U = (0.263981 0.0768071 -1.25467)

surfaceFieldValue phi_farField write:
    orientedSum(farField) of phi = 1.94139

surfaceFieldValue phi_top write:
    orientedSum(top) of phi = -1.94139

Time = 989s

smoothSolver:  Solving for Ux, Initial residual = 0.00234982, Final residual = 2.49208e-05, No Iterations 2
smoothSolver:  Solving for Uy, Initial residual = 0.00155971, Final residual = 0.00014925, No Iterations 1
smoothSolver:  Solving for Uz, Initial residual = 0.00148483, Final residual = 0.000142628, No Iterations 1
DICPCG:  Solving for p, Initial residual = 0.00498043, Final residual = 0.000230161, No Iterations 17
time step continuity errors : sum local = 3.03337e-05, global = -2.09309e-07, cumulative = 0.233657
smoothSolver:  Solving for omega, Initial residual = 0.000568375, Final residual = 4.09204e-05, No Iterations 1
smoothSolver:  Solving for k, Initial residual = 0.00247857, Final residual = 0.000226899, No Iterations 1
ExecutionTime = 833.153 s  ClockTime = 834 s

volFieldValue Uavg_propeller write:
    volAverage(propeller) of U = (0.264175 0.0769249 -1.25474)

surfaceFieldValue phi_farField write:
    orientedSum(farField) of phi = 1.94791

surfaceFieldValue phi_top write:
    orientedSum(top) of phi = -1.94792

Time = 990s

smoothSolver:  Solving for Ux, Initial residual = 0.00235548, Final residual = 2.49849e-05, No Iterations 2
smoothSolver:  Solving for Uy, Initial residual = 0.00156021, Final residual = 0.000149267, No Iterations 1
smoothSolver:  Solving for Uz, Initial residual = 0.00148779, Final residual = 0.000142919, No Iterations 1
DICPCG:  Solving for p, Initial residual = 0.00493606, Final residual = 0.000229632, No Iterations 17
time step continuity errors : sum local = 3.03678e-05, global = -3.54886e-07, cumulative = 0.233656
smoothSolver:  Solving for omega, Initial residual = 0.000561856, Final residual = 4.08726e-05, No Iterations 1
smoothSolver:  Solving for k, Initial residual = 0.00248092, Final residual = 0.000227076, No Iterations 1
ExecutionTime = 834.232 s  ClockTime = 835 s

volFieldValue Uavg_propeller write:
    volAverage(propeller) of U = (0.264373 0.0770458 -1.25481)

surfaceFieldValue phi_farField write:
    orientedSum(farField) of phi = 1.95443

surfaceFieldValue phi_top write:
    orientedSum(top) of phi = -1.95445

Time = 991s

smoothSolver:  Solving for Ux, Initial residual = 0.00236124, Final residual = 2.50495e-05, No Iterations 2
smoothSolver:  Solving for Uy, Initial residual = 0.00156133, Final residual = 0.000149294, No Iterations 1
smoothSolver:  Solving for Uz, Initial residual = 0.00149083, Final residual = 0.000143205, No Iterations 1
DICPCG:  Solving for p, Initial residual = 0.00490346, Final residual = 0.000228209, No Iterations 17
time step continuity errors : sum local = 3.03768e-05, global = -5.06793e-07, cumulative = 0.233656
smoothSolver:  Solving for omega, Initial residual = 0.000564868, Final residual = 4.07898e-05, No Iterations 1
smoothSolver:  Solving for k, Initial residual = 0.00248413, Final residual = 0.000227157, No Iterations 1
ExecutionTime = 835.321 s  ClockTime = 836 s

volFieldValue Uavg_propeller write:
    volAverage(propeller) of U = (0.264573 0.0771698 -1.25488)

surfaceFieldValue phi_farField write:
    orientedSum(farField) of phi = 1.96097

surfaceFieldValue phi_top write:
    orientedSum(top) of phi = -1.961

Time = 992s

smoothSolver:  Solving for Ux, Initial residual = 0.00236681, Final residual = 2.51114e-05, No Iterations 2
smoothSolver:  Solving for Uy, Initial residual = 0.00156187, Final residual = 0.000149314, No Iterations 1
smoothSolver:  Solving for Uz, Initial residual = 0.00149372, Final residual = 0.000143484, No Iterations 1
DICPCG:  Solving for p, Initial residual = 0.00486055, Final residual = 0.000227402, No Iterations 17
time step continuity errors : sum local = 3.03312e-05, global = -6.55833e-07, cumulative = 0.233655
smoothSolver:  Solving for omega, Initial residual = 0.000562242, Final residual = 4.06466e-05, No Iterations 1
smoothSolver:  Solving for k, Initial residual = 0.00248458, Final residual = 0.00022729, No Iterations 1
ExecutionTime = 836.392 s  ClockTime = 838 s

volFieldValue Uavg_propeller write:
    volAverage(propeller) of U = (0.264777 0.0772966 -1.25495)

surfaceFieldValue phi_farField write:
    orientedSum(farField) of phi = 1.96753

surfaceFieldValue phi_top write:
    orientedSum(top) of phi = -1.96756

Time = 993s

smoothSolver:  Solving for Ux, Initial residual = 0.00237271, Final residual = 2.51715e-05, No Iterations 2
smoothSolver:  Solving for Uy, Initial residual = 0.00156257, Final residual = 0.000149331, No Iterations 1
smoothSolver:  Solving for Uz, Initial residual = 0.00149672, Final residual = 0.000143758, No Iterations 1
DICPCG:  Solving for p, Initial residual = 0.00483664, Final residual = 0.000226454, No Iterations 17
time step continuity errors : sum local = 3.02122e-05, global = -7.86241e-07, cumulative = 0.233655
smoothSolver:  Solving for omega, Initial residual = 0.00056335, Final residual = 4.05604e-05, No Iterations 1
smoothSolver:  Solving for k, Initial residual = 0.00248951, Final residual = 0.000227539, No Iterations 1
ExecutionTime = 837.526 s  ClockTime = 839 s

volFieldValue Uavg_propeller write:
    volAverage(propeller) of U = (0.264984 0.0774264 -1.25503)

surfaceFieldValue phi_farField write:
    orientedSum(farField) of phi = 1.97411

surfaceFieldValue phi_top write:
    orientedSum(top) of phi = -1.97415

Time = 994s

smoothSolver:  Solving for Ux, Initial residual = 0.00237821, Final residual = 2.52296e-05, No Iterations 2
smoothSolver:  Solving for Uy, Initial residual = 0.00156358, Final residual = 0.000149377, No Iterations 1
smoothSolver:  Solving for Uz, Initial residual = 0.00149958, Final residual = 0.000144017, No Iterations 1
DICPCG:  Solving for p, Initial residual = 0.00485447, Final residual = 0.000226548, No Iterations 17
time step continuity errors : sum local = 3.02007e-05, global = -9.0995e-07, cumulative = 0.233654
smoothSolver:  Solving for omega, Initial residual = 0.000560902, Final residual = 4.05347e-05, No Iterations 1
smoothSolver:  Solving for k, Initial residual = 0.00249168, Final residual = 0.000227697, No Iterations 1
ExecutionTime = 838.637 s  ClockTime = 840 s

volFieldValue Uavg_propeller write:
    volAverage(propeller) of U = (0.265193 0.0775588 -1.2551)

surfaceFieldValue phi_farField write:
    orientedSum(farField) of phi = 1.98069

surfaceFieldValue phi_top write:
    orientedSum(top) of phi = -1.98073

Time = 995s

smoothSolver:  Solving for Ux, Initial residual = 0.00238362, Final residual = 2.52853e-05, No Iterations 2
smoothSolver:  Solving for Uy, Initial residual = 0.00156419, Final residual = 0.000149386, No Iterations 1
smoothSolver:  Solving for Uz, Initial residual = 0.0015024, Final residual = 0.000144288, No Iterations 1
DICPCG:  Solving for p, Initial residual = 0.00483087, Final residual = 0.000225488, No Iterations 17
time step continuity errors : sum local = 3.02134e-05, global = -1.02426e-06, cumulative = 0.233653
smoothSolver:  Solving for omega, Initial residual = 0.000563366, Final residual = 4.05926e-05, No Iterations 1
smoothSolver:  Solving for k, Initial residual = 0.00249382, Final residual = 0.000227923, No Iterations 1
ExecutionTime = 839.723 s  ClockTime = 841 s

volFieldValue Uavg_propeller write:
    volAverage(propeller) of U = (0.265406 0.0776939 -1.25518)

surfaceFieldValue phi_farField write:
    orientedSum(farField) of phi = 1.98727

surfaceFieldValue phi_top write:
    orientedSum(top) of phi = -1.98732

Time = 996s

smoothSolver:  Solving for Ux, Initial residual = 0.00238901, Final residual = 2.53416e-05, No Iterations 2
smoothSolver:  Solving for Uy, Initial residual = 0.00156508, Final residual = 0.000149408, No Iterations 1
smoothSolver:  Solving for Uz, Initial residual = 0.00150518, Final residual = 0.000144546, No Iterations 1
DICPCG:  Solving for p, Initial residual = 0.00480728, Final residual = 0.000224526, No Iterations 17
time step continuity errors : sum local = 3.01967e-05, global = -1.13e-06, cumulative = 0.233651
smoothSolver:  Solving for omega, Initial residual = 0.000559266, Final residual = 4.05482e-05, No Iterations 1
smoothSolver:  Solving for k, Initial residual = 0.00249624, Final residual = 0.000227932, No Iterations 1
ExecutionTime = 840.836 s  ClockTime = 842 s

volFieldValue Uavg_propeller write:
    volAverage(propeller) of U = (0.265623 0.0778316 -1.25526)

surfaceFieldValue phi_farField write:
    orientedSum(farField) of phi = 1.99385

surfaceFieldValue phi_top write:
    orientedSum(top) of phi = -1.99391

Time = 997s

smoothSolver:  Solving for Ux, Initial residual = 0.0023942, Final residual = 2.53947e-05, No Iterations 2
smoothSolver:  Solving for Uy, Initial residual = 0.00156605, Final residual = 0.000149424, No Iterations 1
smoothSolver:  Solving for Uz, Initial residual = 0.00150788, Final residual = 0.000144797, No Iterations 1
DICPCG:  Solving for p, Initial residual = 0.00477085, Final residual = 0.000223069, No Iterations 17
time step continuity errors : sum local = 3.01163e-05, global = -1.23034e-06, cumulative = 0.23365
smoothSolver:  Solving for omega, Initial residual = 0.000565079, Final residual = 4.05126e-05, No Iterations 1
smoothSolver:  Solving for k, Initial residual = 0.00249735, Final residual = 0.000228057, No Iterations 1
ExecutionTime = 841.971 s  ClockTime = 843 s

volFieldValue Uavg_propeller write:
    volAverage(propeller) of U = (0.265843 0.0779716 -1.25534)

surfaceFieldValue phi_farField write:
    orientedSum(farField) of phi = 2.00044

surfaceFieldValue phi_top write:
    orientedSum(top) of phi = -2.0005

Time = 998s

smoothSolver:  Solving for Ux, Initial residual = 0.00239928, Final residual = 2.54471e-05, No Iterations 2
smoothSolver:  Solving for Uy, Initial residual = 0.00156645, Final residual = 0.000149428, No Iterations 1
smoothSolver:  Solving for Uz, Initial residual = 0.0015104, Final residual = 0.000145049, No Iterations 1
DICPCG:  Solving for p, Initial residual = 0.00474464, Final residual = 0.000222043, No Iterations 17
time step continuity errors : sum local = 3.00788e-05, global = -1.33328e-06, cumulative = 0.233649
smoothSolver:  Solving for omega, Initial residual = 0.000558136, Final residual = 4.04059e-05, No Iterations 1
smoothSolver:  Solving for k, Initial residual = 0.00249779, Final residual = 0.000228068, No Iterations 1
ExecutionTime = 843.05 s  ClockTime = 844 s

volFieldValue Uavg_propeller write:
    volAverage(propeller) of U = (0.266066 0.078114 -1.25542)

surfaceFieldValue phi_farField write:
    orientedSum(farField) of phi = 2.00703

surfaceFieldValue phi_top write:
    orientedSum(top) of phi = -2.0071

Time = 999s

smoothSolver:  Solving for Ux, Initial residual = 0.00240462, Final residual = 2.54972e-05, No Iterations 2
smoothSolver:  Solving for Uy, Initial residual = 0.00156695, Final residual = 0.000149427, No Iterations 1
smoothSolver:  Solving for Uz, Initial residual = 0.00151315, Final residual = 0.000145304, No Iterations 1
DICPCG:  Solving for p, Initial residual = 0.00471802, Final residual = 0.000222377, No Iterations 17
time step continuity errors : sum local = 3.01357e-05, global = -1.43083e-06, cumulative = 0.233647
smoothSolver:  Solving for omega, Initial residual = 0.000558951, Final residual = 4.03881e-05, No Iterations 1
smoothSolver:  Solving for k, Initial residual = 0.00249936, Final residual = 0.000228149, No Iterations 1
ExecutionTime = 844.163 s  ClockTime = 845 s

volFieldValue Uavg_propeller write:
    volAverage(propeller) of U = (0.266293 0.0782586 -1.2555)

surfaceFieldValue phi_farField write:
    orientedSum(farField) of phi = 2.01363

surfaceFieldValue phi_top write:
    orientedSum(top) of phi = -2.01369

Time = 1000s

smoothSolver:  Solving for Ux, Initial residual = 0.00240933, Final residual = 2.55463e-05, No Iterations 2
smoothSolver:  Solving for Uy, Initial residual = 0.00156803, Final residual = 0.00014945, No Iterations 1
smoothSolver:  Solving for Uz, Initial residual = 0.00151567, Final residual = 0.000145546, No Iterations 1
DICPCG:  Solving for p, Initial residual = 0.00467796, Final residual = 0.000222111, No Iterations 17
time step continuity errors : sum local = 3.01518e-05, global = -1.53126e-06, cumulative = 0.233646
smoothSolver:  Solving for omega, Initial residual = 0.000558431, Final residual = 4.01501e-05, No Iterations 1
smoothSolver:  Solving for k, Initial residual = 0.00250206, Final residual = 0.00022825, No Iterations 1
ExecutionTime = 846.578 s  ClockTime = 848 s

volFieldValue Uavg_propeller write:
    volAverage(propeller) of U = (0.266522 0.0784026 -1.25558)

surfaceFieldValue phi_farField write:
    orientedSum(farField) of phi = 2.02022

surfaceFieldValue phi_top write:
    orientedSum(top) of phi = -2.02029

End

